geometry optimzed in LAMMPS
_audit_creation_date              2020-11-30 
_audit_creation_method            'lammps2cif' 
_symmetry_space_group_name_H-M    'P1' 
_symmetry_Int_Tables_number       1 
_symmetry_cell_setting            triclinic 
loop_ 
_symmetry_equiv_pos_as_xyz 
  x,y,z 
_cell_length_a                    31.92867764010997 
_cell_length_b                    32.003734482585514 
_cell_length_c                    31.835593011387385 
_cell_angle_alpha                 90.03187889544218 
_cell_angle_beta                  89.97367273496297 
_cell_angle_gamma                 89.92057036764959 
loop_ 
_atom_site_label 
_atom_site_type_symbol 
_atom_site_fract_x 
_atom_site_fract_y 
_atom_site_fract_z 
_atom_site_charge 
C1          C  0.23333570  0.25792464  0.49851252     0.00100
C2          C  0.26043017  0.22539597  0.50073978     0.00100
C3          C  0.23512528  0.47731494  0.28319540     0.00100
C4          C  0.26523246  0.47713690  0.25273243     0.00100
C5          C  0.48256885  0.26305191  0.25550155     0.00100
C6          C  0.48272991  0.23742286  0.28949185     0.00100
C7          C  0.22003083  0.18307521  0.00043181     0.00100
C8          C  0.19119627  0.21484521  0.00517072     0.00100
C9          C  0.97495353  0.22150445  0.22261409     0.00100
C10         C  0.97447090  0.19160191  0.25445386     0.00100
C11         C  0.22724029  0.97098909  0.21314280     0.00100
C12         C  0.19600684  0.97714519  0.24273474     0.00100
C13         C  0.72610968  0.26457528  0.49888505     0.00100
C14         C  0.69860156  0.23188292  0.49995186     0.00100
C15         C  0.26588194  0.72134823  0.50085247     0.00100
C16         C  0.23463713  0.69239329  0.49770324     0.00100
C17         C  0.48361929  0.72009297  0.28531455     0.00100
C18         C  0.48449792  0.68955731  0.25576842     0.00100
C19         C  0.72152335  0.47277525  0.28744604     0.00100
C20         C  0.68768729  0.47481742  0.26014002     0.00100
C21         C  0.48502700  0.25818049  0.74519758     0.00100
C22         C  0.48616961  0.22481236  0.71840639     0.00100
C23         C  0.26521090  0.46930799  0.74551463     0.00100
C24         C  0.23854449  0.47148394  0.71197430     0.00100
C25         C  0.23568312  0.75772201  0.99083251     0.00100
C26         C  0.20329442  0.72870812  0.99173319     0.00100
C27         C  0.75820784  0.22696882  0.99666634     0.00100
C28         C  0.73181614  0.19325813  0.99574022     0.00100
C29         C  0.98814520  0.19005373  0.75194058     0.00100
C30         C  0.98661883  0.21914093  0.78422282     0.00100
C31         C  0.19763968  0.97963134  0.75448399     0.00100
C32         C  0.22614978  0.97938154  0.78658028     0.00100
C33         C  0.98004840  0.72438869  0.21713462     0.00100
C34         C  0.98145944  0.75698337  0.24538800     0.00100
C35         C  0.77156234  0.97187798  0.23658831     0.00100
C36         C  0.74091016  0.97678937  0.20662965     0.00100
N37         N  0.31537944  0.52066949  0.95174615    -0.06580
N38         N  0.34079123  0.52824862  0.91986540    -0.58700
N39         N  0.29116108  0.54695532  0.05025316    -0.06260
N40         N  0.29906384  0.57400589  0.08052929    -0.60830
N41         N  0.32048642  0.51818796  0.04852537    -0.05860
N42         N  0.34888443  0.52492228  0.07814113    -0.58680
N43         N  0.28622389  0.54970508  0.95424519    -0.05540
N44         N  0.29138627  0.57781679  0.92429174    -0.61180
C45         C  0.32577356  0.56426732  0.90341987     0.95590
C46         C  0.33527600  0.56022283  0.09753419     0.95370
N47         N  0.15938306  0.52067155  0.05550688    -0.06770
N48         N  0.13004584  0.53707616  0.08028137    -0.59280
N49         N  0.18675170  0.55071798  0.95926186    -0.04890
N50         N  0.17918351  0.58272170  0.93454304    -0.60530
N51         N  0.15467963  0.52487044  0.95888060    -0.06800
N52         N  0.12446374  0.53990338  0.93413796    -0.59550
N53         N  0.19349865  0.54372878  0.05752038    -0.04530
N54         N  0.18892985  0.57346654  0.08560030    -0.60620
Mn55       Mn  0.23908373  0.54837478  0.00527509     1.18440
C56         C  0.14891298  0.57051512  0.09900135     0.97680
C57         C  0.14058294  0.57611536  0.91843875     0.98340
N58         N  0.31710618  0.41871210  0.04482485    -0.06820
N59         N  0.34404339  0.41058968  0.07507150    -0.63130
N60         N  0.28489721  0.39223491  0.95196641    -0.05620
N61         N  0.29108875  0.36209136  0.92459466    -0.63800
N62         N  0.31454477  0.42053718  0.94973431    -0.06320
N63         N  0.34114351  0.41077744  0.91942303    -0.63390
N64         N  0.28695586  0.39073726  0.04464274    -0.05220
N65         N  0.29294172  0.36263554  0.07423978    -0.64080
Mn66       Mn  0.31809486  0.46970596  0.99853594     1.10660
C67         C  0.32877074  0.37533100  0.09277236     0.98900
C68         C  0.32602559  0.37409750  0.90429603     0.98970
N69         N  0.15436136  0.42380957  0.95359153    -0.06330
N70         N  0.12488618  0.41102726  0.92685271    -0.61710
N71         N  0.18879600  0.39360509  0.04914487    -0.05650
N72         N  0.18439555  0.36280209  0.07596736    -0.58440
N73         N  0.15655850  0.41909183  0.05130031    -0.06960
N74         N  0.12876238  0.40434863  0.07898684    -0.61270
N75         N  0.18771519  0.39997100  0.94973016    -0.05950
N76         N  0.18282996  0.37348994  0.91859629    -0.58460
Mn77       Mn  0.15422445  0.47203834  0.00492330     1.20190
Mn78       Mn  0.23638866  0.39375286  0.99891992     1.10090
Cl79       Cl  0.23706945  0.47103554  0.00186282    -0.86430
C80         C  0.14312859  0.37912672  0.90481578     0.95900
C81         C  0.14709924  0.36899924  0.09469999     0.95700
N82         N  0.78451758  0.42527433  0.92029277    -0.06580
N83         N  0.80986829  0.41058663  0.89049477    -0.58700
N84         N  0.68705268  0.39668253  0.94768444    -0.06260
N85         N  0.66039483  0.36775428  0.93381675    -0.60830
N86         N  0.68824372  0.42792124  0.92102983    -0.05860
N87         N  0.66157676  0.42233786  0.89046878    -0.58680
N88         N  0.78496668  0.39997838  0.95269123    -0.05540
N89         N  0.81283917  0.37035921  0.94735528    -0.61180
C90         C  0.82768757  0.37597457  0.90808300     0.95590
C91         C  0.64429138  0.38478643  0.89796161     0.95370
N92         N  0.68662964  0.42776360  0.07720481    -0.06770
N93         N  0.66094064  0.42127370  0.10852802    -0.59280
N94         N  0.78260084  0.39977381  0.04706743    -0.04890
N95         N  0.80791186  0.36855132  0.05381161    -0.60530
N96         N  0.78228277  0.42543171  0.07920408    -0.06800
N97         N  0.80570879  0.40987017  0.11000092    -0.59550
N98         N  0.68628392  0.39628760  0.05073826    -0.04530
N99         N  0.66144494  0.36629333  0.06564888    -0.60620
Mn100      Mn  0.73452716  0.39698895  0.99939631     1.18440
C101        C  0.64536343  0.38285022  0.10185628     0.97680
C102        C  0.82203201  0.37427464  0.09312948     0.98340
N103        N  0.68665561  0.52220421  0.92108344    -0.06820
N104        N  0.66103558  0.52861691  0.88957576    -0.63130
N105        N  0.78272153  0.55194473  0.95333875    -0.05620
N106        N  0.80919767  0.58253070  0.94837616    -0.63800
N107        N  0.78341920  0.52672607  0.92086914    -0.06320
N108        N  0.80883727  0.54217438  0.89155432    -0.63390
N109        N  0.68609602  0.55386372  0.94735416    -0.05220
N110        N  0.66172535  0.58397485  0.93193003    -0.64080
Mn111      Mn  0.73626360  0.47551458  0.91971479     1.10660
C112        C  0.64590297  0.56741021  0.89571691     0.98900
C113        C  0.82504279  0.57727516  0.90958586     0.98970
N114        N  0.78160345  0.52691788  0.07978848    -0.06330
N115        N  0.80509096  0.54229049  0.11069512    -0.61710
N116        N  0.68454841  0.55314280  0.05045798    -0.05650
N117        N  0.65837776  0.58212962  0.06506891    -0.58440
N118        N  0.68516771  0.52134250  0.07643810    -0.06960
N119        N  0.65810952  0.52631696  0.10684358    -0.61270
N120        N  0.78189786  0.55282681  0.04787999    -0.05950
N121        N  0.80738845  0.58409538  0.05502440    -0.58460
Mn122      Mn  0.73457099  0.47546548  0.07900579     1.20190
Mn123      Mn  0.73312504  0.55408543  0.99972332     1.10090
Cl124      Cl  0.73446914  0.47549792  0.99944207    -0.86430
C125        C  0.82151982  0.57820666  0.09452309     0.95900
C126        C  0.64188256  0.56451001  0.10051490     0.95700
C127        C  0.84062022  0.33750076  0.88433113     0.00100
C128        C  0.86829269  0.33843407  0.85133151     0.00100
C129        C  0.85981418  0.61603358  0.15329047     0.00100
C130        C  0.83275013  0.61629941  0.11985675     0.00100
N131        N  0.93592702  0.55680254  0.79575895    -0.06580
N132        N  0.91090849  0.58885969  0.80003941    -0.58700
N133        N  0.02868465  0.52499996  0.83061724    -0.06260
N134        N  0.05374947  0.53726351  0.86156509    -0.60830
N135        N  0.03328060  0.54964543  0.79787264    -0.05860
N136        N  0.06291263  0.57704161  0.80515743    -0.58680
N137        N  0.93172824  0.53074588  0.82744871    -0.05540
N138        N  0.90369812  0.54639896  0.85464362    -0.61180
C139        C  0.89048409  0.58295051  0.83635611     0.95590
C140        C  0.07518457  0.57021461  0.84528411     0.95370
N141        N  0.02817078  0.40240070  0.79514076    -0.06770
N142        N  0.05484970  0.37198992  0.80051644    -0.59280
N143        N  0.92997233  0.42724522  0.82421446    -0.04890
N144        N  0.90303899  0.41099907  0.85184268    -0.60530
N145        N  0.93203935  0.40311657  0.79072121    -0.06800
N146        N  0.90593810  0.37201301  0.79419899    -0.59550
N147        N  0.02627206  0.42549620  0.82926053    -0.04530
N148        N  0.05168450  0.40954807  0.85869851    -0.60620
Mn149      Mn  0.97844998  0.47721195  0.83015816     1.18440
C150        C  0.07012020  0.37580864  0.83970255     0.97680
C151        C  0.88753317  0.37654170  0.83189024     0.98340
N152        N  0.03148476  0.55789031  0.69931595    -0.06820
N153        N  0.05986401  0.58700789  0.69335353    -0.63130
N154        N  0.93661800  0.53233759  0.66795673    -0.05620
N155        N  0.90618279  0.54126480  0.64142973    -0.63800
N156        N  0.93864861  0.56081146  0.69768150    -0.06320
N157        N  0.91023119  0.59010028  0.69156879    -0.63390
N158        N  0.03094277  0.53124713  0.66797730    -0.05220
N159        N  0.05965290  0.54141332  0.64001050    -0.64080
Mn160      Mn  0.98515893  0.55657626  0.74825506     1.10660
C161        C  0.07702746  0.57655268  0.65616229     0.98900
C162        C  0.89028548  0.57761916  0.65628204     0.98970
N163        N  0.93607147  0.40249226  0.69232762    -0.06330
N164        N  0.90704915  0.37423142  0.68468562    -0.61710
N165        N  0.03153834  0.43196563  0.66547917    -0.05650
N166        N  0.06150573  0.42437377  0.63777277    -0.58440
N167        N  0.03149612  0.40316588  0.69494290    -0.06960
N168        N  0.06104751  0.37512255  0.68766988    -0.61270
N169        N  0.93496811  0.43218578  0.66389596    -0.05950
N170        N  0.90446599  0.42500781  0.63660030    -0.58460
Mn171      Mn  0.98222904  0.40246429  0.74355644     1.20190
Mn172      Mn  0.98327251  0.48178479  0.66530101     1.10090
Cl173      Cl  0.98181082  0.47945827  0.74697877    -0.86430
C174        C  0.88754383  0.38842435  0.64985786     0.95900
C175        C  0.07930234  0.38857018  0.65180566     0.95700
C176        C  0.12043663  0.33993776  0.89153394     0.00100
C177        C  0.09062745  0.33802690  0.86058546     0.00100
C178        C  0.86616471  0.61919968  0.85522674     0.00100
C179        C  0.83751759  0.61603880  0.88704850     0.00100
C180        C  0.08520470  0.60838589  0.87015735     0.00100
C181        C  0.11618643  0.61188768  0.89922146     0.00100
C182        C  0.86250375  0.33567999  0.14908041     0.00100
C183        C  0.83448835  0.33636452  0.11678405     0.00100
N184        N  0.06193358  0.52953399  0.19954636    -0.06580
N185        N  0.09085822  0.54374585  0.17290147    -0.58700
N186        N  0.03380814  0.55874186  0.29641329    -0.06260
N187        N  0.04877382  0.58952712  0.32026216    -0.60830
N188        N  0.05977695  0.52687067  0.29726371    -0.05860
N189        N  0.09038423  0.53392355  0.32365795    -0.58680
N190        N  0.03009401  0.55558152  0.20045920    -0.05540
N191        N  0.03546038  0.58618088  0.17392014    -0.61180
C192        C  0.07324786  0.57920958  0.15677226     0.95590
C193        C  0.08437678  0.57333005  0.33755074     0.95370
N194        N  0.90725377  0.52552138  0.29819489    -0.06770
N195        N  0.87642369  0.53137095  0.32429762    -0.59280
N196        N  0.93474036  0.55327657  0.19917973    -0.04890
N197        N  0.92637743  0.58374686  0.17287510    -0.60530
N198        N  0.90287017  0.52747475  0.20178951    -0.06800
N199        N  0.87087480  0.54247012  0.17974346    -0.59550
N200        N  0.93193187  0.55818224  0.29729824    -0.04530
N201        N  0.91593704  0.58825280  0.32168803    -0.60620
Mn202      Mn  0.98258942  0.55757217  0.24875465     1.18440
C203        C  0.88089264  0.57054588  0.33882269     0.97680
C204        C  0.88604922  0.57790910  0.16161389     0.98340
N205        N  0.06136042  0.43129430  0.29713875    -0.06820
N206        N  0.09300359  0.42362206  0.32210482    -0.63130
N207        N  0.03108596  0.40219089  0.20221273    -0.05620
N208        N  0.03683844  0.36981429  0.17860447    -0.63800
N209        N  0.06400060  0.42664350  0.20098413    -0.06320
N210        N  0.09379906  0.40878685  0.17711428    -0.63390
N211        N  0.03450911  0.40019625  0.29769528    -0.05220
N212        N  0.04922253  0.36954756  0.32179234    -0.64080
Mn213      Mn  0.06301339  0.47878484  0.24811965     1.10660
C214        C  0.08583586  0.38499417  0.33733076     0.98900
C215        C  0.07531693  0.37286073  0.16264018     0.98970
N216        N  0.90185894  0.42565542  0.20300807    -0.06330
N217        N  0.87037642  0.40962272  0.18052230    -0.61710
N218        N  0.93243509  0.39875758  0.29797076    -0.05650
N219        N  0.91545838  0.36665377  0.31817797    -0.58440
N220        N  0.90753797  0.43128744  0.30070594    -0.06960
N221        N  0.87577878  0.42340683  0.32560144    -0.61270
N222        N  0.93404847  0.40014821  0.20176492    -0.05950
N223        N  0.92594722  0.36825860  0.17721642    -0.58460
Mn224      Mn  0.90425558  0.47761473  0.25046567     1.20190
Mn225      Mn  0.98314808  0.39988888  0.25025547     1.10090
Cl226      Cl  0.98333376  0.47842434  0.24920630    -0.86430
C227        C  0.88643888  0.37358809  0.16392632     0.95900
C228        C  0.87983898  0.38268213  0.33541528     0.95700
N229        N  0.40787108  0.17939548  0.95496153    -0.06580
N230        N  0.37680342  0.17378666  0.92885611    -0.58700
N231        N  0.43267593  0.14795982  0.05108815    -0.06260
N232        N  0.41666068  0.12010942  0.07782439    -0.60830
N233        N  0.41037520  0.18236146  0.05217763    -0.05860
N234        N  0.38119146  0.17936051  0.08056491    -0.58680
N235        N  0.43260599  0.14636145  0.95480705    -0.05540
N236        N  0.41713030  0.11720723  0.92919289    -0.61180
C237        C  0.38225486  0.13535150  0.91246612     0.95590
C238        C  0.38411059  0.14071261  0.09654825     0.95370
N239        N  0.55554148  0.18130165  0.05376378    -0.06770
N240        N  0.58155451  0.17912091  0.08558133    -0.59280
N241        N  0.53500802  0.14186196  0.95565148    -0.04890
N242        N  0.55027167  0.11079056  0.93200608    -0.60530
N243        N  0.56082005  0.17386679  0.95472014    -0.06800
N244        N  0.59252076  0.16580201  0.92979074    -0.59550
N245        N  0.53166348  0.14794031  0.05266679    -0.04530
N246        N  0.54382894  0.12099221  0.08198349    -0.60620
Mn247      Mn  0.48307326  0.14376120  0.00310099     1.18440
C248        C  0.57596879  0.14058451  0.10217100     0.97680
C249        C  0.58627981  0.12669634  0.91525759     0.98340
N250        N  0.40888477  0.27921822  0.05015004    -0.06820
N251        N  0.38193223  0.28526740  0.08098845    -0.63130
N252        N  0.43524361  0.30675812  0.95143287    -0.05620
N253        N  0.42761297  0.33156825  0.91890462    -0.63800
N254        N  0.40562537  0.27848532  0.95469384    -0.06320
N255        N  0.37652685  0.28435681  0.92591886    -0.63390
N256        N  0.43750030  0.30870006  0.04963445    -0.05220
N257        N  0.43071427  0.33546297  0.08074733    -0.64080
Mn258      Mn  0.40775206  0.22959181  0.00288350     1.10660
C259        C  0.39573349  0.32041918  0.09980224     0.98900
C260        C  0.39066547  0.31718608  0.90337013     0.98970
N261        N  0.56332375  0.27328870  0.95139309    -0.06330
N262        N  0.59238474  0.27939132  0.92264547    -0.61710
N263        N  0.53790643  0.30702797  0.04587744    -0.05650
N264        N  0.54823455  0.33393203  0.07565301    -0.58440
N265        N  0.56537302  0.27654301  0.04469341    -0.06960
N266        N  0.59509831  0.28201766  0.07270091    -0.61270
N267        N  0.53557948  0.30379033  0.95071994    -0.05950
N268        N  0.54497965  0.33099140  0.92104858    -0.58460
Mn269      Mn  0.56174523  0.22559544  0.00081192     1.20190
Mn270      Mn  0.48635397  0.30792431  0.99933010     1.10090
Cl271      Cl  0.48472262  0.22670138  0.00050285    -0.86430
C272        C  0.58075191  0.31562205  0.90426130     0.95900
C273        C  0.58438323  0.31801781  0.09167119     0.95700
N274        N  0.41123550  0.92135798  0.78877849    -0.06580
N275        N  0.38535790  0.88948664  0.79033727    -0.58700
N276        N  0.43199261  0.02002022  0.82859063    -0.06260
N277        N  0.41728153  0.04460989  0.85925314    -0.60830
N278        N  0.40705735  0.02198213  0.79570661    -0.05860
N279        N  0.37708961  0.04947314  0.80265500    -0.58680
N280        N  0.43341885  0.92317774  0.82334514    -0.05540
N281        N  0.41977865  0.89472755  0.85063127    -0.61180
C282        C  0.38883574  0.87384443  0.82977169     0.95590
C283        C  0.38275582  0.06346646  0.84232948     0.95370
N284        N  0.55967568  0.02022630  0.79464081    -0.06770
N285        N  0.59116784  0.04530647  0.80171417    -0.59280
N286        N  0.53192759  0.92256284  0.82078997    -0.04890
N287        N  0.54376304  0.89312776  0.84762760    -0.60530
N288        N  0.55701395  0.92261904  0.78800606    -0.06800
N289        N  0.58455375  0.89220453  0.79107891    -0.59550
N290        N  0.53467841  0.01902885  0.82752107    -0.04530
N291        N  0.55055059  0.04264719  0.85824788    -0.60620
Mn292      Mn  0.48305264  0.97163499  0.82719967     1.18440
C293        C  0.58591761  0.05952495  0.84111060     0.97680
C294        C  0.57727841  0.87441336  0.82894478     0.98340
N295        N  0.40537147  0.02341720  0.69538298    -0.06820
N296        N  0.37719821  0.05306192  0.68940544    -0.63130
N297        N  0.43484792  0.92802013  0.66285208    -0.05620
N298        N  0.42770865  0.89674369  0.63652532    -0.63800
N299        N  0.40645765  0.92826623  0.69276843    -0.06320
N300        N  0.37939049  0.89767491  0.68750528    -0.63390
N301        N  0.43356447  0.02402736  0.66521595    -0.05220
N302        N  0.42535042  0.05426666  0.63825439    -0.64080
Mn303      Mn  0.40663847  0.97414910  0.74367547     1.10660
C304        C  0.38978386  0.07162231  0.65337073     0.98900
C305        C  0.39272259  0.87844725  0.65228488     0.98970
N306        N  0.56358215  0.93107599  0.69133563    -0.06330
N307        N  0.59192909  0.90176589  0.68559754    -0.61710
N308        N  0.53334815  0.02630966  0.66561848    -0.05650
N309        N  0.54140971  0.05784057  0.63985391    -0.58440
N310        N  0.56173044  0.02466516  0.69555329    -0.06960
N311        N  0.59007570  0.05409714  0.69034776    -0.61270
N312        N  0.53479639  0.92985833  0.66199231    -0.05950
N313        N  0.54240844  0.89853065  0.63594751    -0.58460
Mn314      Mn  0.56104027  0.97486805  0.74292150     1.20190
Mn315      Mn  0.48403656  0.97704285  0.66250249     1.10090
Cl316      Cl  0.48365359  0.97509406  0.74390944    -0.86430
C317        C  0.57848709  0.88165443  0.65097291     0.95900
C318        C  0.57700327  0.07479379  0.65575823     0.95700
C319        C  0.34404831  0.83121783  0.88079109     0.00100
C320        C  0.34807314  0.86114215  0.85018659     0.00100
C321        C  0.62327719  0.10294538  0.89762809     0.00100
C322        C  0.62348512  0.07621256  0.86397961     0.00100
C323        C  0.61343048  0.83169703  0.88435238     0.00100
C324        C  0.61484361  0.86135999  0.85374231     0.00100
N325        N  0.42815976  0.80150703  0.95057894    -0.06580
N326        N  0.41421098  0.82904315  0.92217438    -0.58700
N327        N  0.40781057  0.76689119  0.05053771    -0.06260
N328        N  0.38034556  0.76958533  0.08107252    -0.60830
N329        N  0.43089188  0.80088151  0.04885507    -0.05860
N330        N  0.41719782  0.82823273  0.07755364    -0.58680
N331        N  0.40370041  0.76851451  0.95144772    -0.05540
N332        N  0.37439831  0.77252670  0.92293132    -0.61180
C333        C  0.38017038  0.81015675  0.90447495     0.95590
C334        C  0.38558419  0.80781811  0.09820121     0.95370
N335        N  0.43722177  0.63934823  0.04641615    -0.06770
N336        N  0.43177897  0.61204574  0.07714486    -0.59280
N337        N  0.40282798  0.66944804  0.95321847    -0.04890
N338        N  0.37297294  0.66303124  0.92538830    -0.60530
N339        N  0.43237825  0.64098799  0.94965287    -0.06800
N340        N  0.42358727  0.61523509  0.91827763    -0.59550
N341        N  0.40852392  0.66887081  0.04850474    -0.04530
N342        N  0.38307934  0.66229039  0.08053959    -0.60620
Mn343      Mn  0.40499281  0.71882528  0.00099569     1.18440
C344        C  0.39786374  0.62676642  0.09806223     0.97680
C345        C  0.38623694  0.62933247  0.90359090     0.98340
N346        N  0.53227249  0.80392812  0.04393098    -0.06820
N347        N  0.54634992  0.83361919  0.06980013    -0.63130
N348        N  0.55334552  0.76798884  0.94498804    -0.05620
N349        N  0.58070447  0.77105608  0.91445190    -0.63800
N350        N  0.52881998  0.80098860  0.94626624    -0.06320
N351        N  0.54168230  0.82843235  0.91760413    -0.63390
N352        N  0.55874652  0.77237597  0.04303315    -0.05220
N353        N  0.59013906  0.77961544  0.06851033    -0.64080
Mn354      Mn  0.47997902  0.80413839  0.99746767     1.10660
C355        C  0.58262256  0.81750751  0.08559331     0.98900
C356        C  0.57453958  0.80919348  0.89773078     0.98970
N357        N  0.53319676  0.64259032  0.94667999    -0.06330
N358        N  0.54361652  0.61507459  0.91752936    -0.61710
N359        N  0.56282430  0.67314364  0.04268927    -0.05650
N360        N  0.59066599  0.66834290  0.07287637    -0.58440
N361        N  0.53803341  0.64046497  0.04034783    -0.06960
N362        N  0.54966295  0.61191710  0.06793406    -0.61270
N363        N  0.56105677  0.67266274  0.94830495    -0.05950
N364        N  0.59096415  0.66644242  0.92057642    -0.58460
Mn365      Mn  0.48490280  0.63968153  0.99547734     1.20190
Mn366      Mn  0.55926589  0.72215416  0.99522110     1.10090
Cl367      Cl  0.48216633  0.72122429  0.99755201    -0.86430
C368        C  0.58019856  0.63015699  0.90213109     0.95900
C369        C  0.58212822  0.63003765  0.08850304     0.95700
C370        C  0.34705513  0.82772916  0.11718903     0.00100
C371        C  0.34453855  0.85897678  0.14645610     0.00100
C372        C  0.34538766  0.08094363  0.86610705     0.00100
C373        C  0.34489002  0.11323450  0.89473107     0.00100
C374        C  0.61810144  0.84113075  0.10579656     0.00100
C375        C  0.61502045  0.87269182  0.13474546     0.00100
N376        N  0.55210219  0.92859140  0.20386140    -0.06580
N377        N  0.58154480  0.90104485  0.19735072    -0.58700
N378        N  0.52960160  0.02661799  0.17448229    -0.06260
N379        N  0.54563809  0.05328049  0.14649493    -0.60830
N380        N  0.55408570  0.02534390  0.20766331    -0.05860
N381        N  0.58523343  0.05140869  0.20363570    -0.58680
N382        N  0.52777563  0.93091780  0.17061953    -0.05540
N383        N  0.54262696  0.90648576  0.14002943    -0.61180
C384        C  0.57649407  0.88731958  0.15760869     0.95590
C385        C  0.58051663  0.06913722  0.16579544     0.95370
N386        N  0.40329136  0.02736959  0.20909034    -0.06770
N387        N  0.37533289  0.05740473  0.20572597    -0.59280
N388        N  0.42681282  0.92967884  0.17301016    -0.04890
N389        N  0.41332467  0.90090494  0.14571107    -0.60530
N390        N  0.40349390  0.92823339  0.20699828    -0.06800
N391        N  0.37616836  0.89781258  0.20456055    -0.59550
N392        N  0.42826912  0.02760775  0.17622576    -0.04530
N393        N  0.41588862  0.05667547  0.14905488    -0.60620
Mn394      Mn  0.47777397  0.97888859  0.17110917     1.18440
C395        C  0.38253376  0.07556452  0.16793317     0.97680
C396        C  0.38138059  0.88088463  0.16627031     0.98340
N397        N  0.55664698  0.02338152  0.30562317    -0.06820
N398        N  0.58228902  0.05540609  0.31104324    -0.63130
N399        N  0.52996375  0.92545604  0.33260045    -0.05620
N400        N  0.53901168  0.89421094  0.35830277    -0.63800
N401        N  0.55756162  0.92713997  0.30207518    -0.06320
N402        N  0.58611933  0.89764601  0.30627623    -0.63390
N403        N  0.52854750  0.02232907  0.33579417    -0.05220
N404        N  0.53438808  0.05364661  0.36232322    -0.64080
Mn405      Mn  0.55557367  0.97605353  0.25458469     1.10660
C406        C  0.56820627  0.07390595  0.34667064     0.98900
C407        C  0.57436079  0.87749731  0.34151581     0.98970
N408        N  0.40107112  0.92755177  0.30386689    -0.06330
N409        N  0.37297330  0.89795670  0.30900740    -0.61710
N410        N  0.42924337  0.02068224  0.33634973    -0.05650
N411        N  0.42262739  0.05206511  0.36248360    -0.58440
N412        N  0.40014246  0.02015486  0.30718319    -0.06960
N413        N  0.37247098  0.04999491  0.31319111    -0.61270
N414        N  0.43030252  0.92532812  0.33283740    -0.05950
N415        N  0.42318186  0.89337251  0.35803351    -0.58460
Mn416      Mn  0.40125253  0.97599980  0.25613886     1.20190
Mn417      Mn  0.47967571  0.97332013  0.33576083     1.10090
Cl418      Cl  0.47856963  0.97623652  0.25426866    -0.86430
C419        C  0.38725238  0.87686548  0.34272858     0.95900
C420        C  0.38698888  0.06973220  0.34755255     0.95700
N421        N  0.31911743  0.92603859  0.45004713    -0.06580
N422        N  0.34562962  0.89474135  0.44408070    -0.58700
N423        N  0.28750797  0.02165921  0.41951168    -0.06260
N424        N  0.29174467  0.05309872  0.39297186    -0.60830
N425        N  0.31685523  0.02294480  0.44838366    -0.05860
N426        N  0.34160069  0.05550055  0.44239432    -0.58680
N427        N  0.28995745  0.92574168  0.42098588    -0.05540
N428        N  0.29605939  0.89486710  0.39431010    -0.61180
C429        C  0.33092665  0.87595512  0.40887293     0.95590
C430        C  0.32561760  0.07386608  0.40761409     0.95370
N431        N  0.15656086  0.01935237  0.44438113    -0.06770
N432        N  0.12945303  0.04801383  0.43033506    -0.59280
N433        N  0.19257506  0.92090768  0.42256520    -0.04890
N434        N  0.18948580  0.89086403  0.39451242    -0.60530
N435        N  0.15917545  0.92139315  0.44682479    -0.06800
N436        N  0.13179834  0.89291692  0.43344835    -0.59550
N437        N  0.19042287  0.02001965  0.42082575    -0.04530
N438        N  0.18793367  0.04978950  0.39265863    -0.60620
Mn439      Mn  0.23970626  0.97200958  0.42011057     1.18440
C440        C  0.14987927  0.06714768  0.39773160     0.97680
C441        C  0.15123062  0.87356610  0.40047391     0.98340
N442        N  0.31597682  0.02506894  0.54691303    -0.06820
N443        N  0.34256854  0.05580912  0.55467574    -0.63130
N444        N  0.28860479  0.93146792  0.57870870    -0.05620
N445        N  0.29464737  0.90267793  0.60762958    -0.63800
N446        N  0.31728093  0.92880648  0.54924320    -0.06320
N447        N  0.34241782  0.89674792  0.55645848    -0.63390
N448        N  0.28579406  0.02494292  0.57494997    -0.05220
N449        N  0.29174891  0.05448911  0.60310016    -0.64080
Mn450      Mn  0.31851615  0.97554582  0.49852036     1.10660
C451        C  0.32697458  0.07377136  0.58993729     0.98900
C452        C  0.32766142  0.88067774  0.59292466     0.98970
N453        N  0.15732031  0.92414891  0.54937755    -0.06330
N454        N  0.13050155  0.89584138  0.56486458    -0.61710
N455        N  0.18667265  0.02324863  0.57012115    -0.05650
N456        N  0.18012426  0.05008275  0.60012104    -0.58440
N457        N  0.15314620  0.02028971  0.54631729    -0.06960
N458        N  0.12253624  0.04429334  0.56205862    -0.61270
N459        N  0.19004322  0.92706216  0.57439491    -0.05950
N460        N  0.18685565  0.90053286  0.60531208    -0.58460
Mn461      Mn  0.15399496  0.97108591  0.49638960     1.20190
Mn462      Mn  0.23737157  0.97690440  0.57485033     1.10090
Cl463      Cl  0.23708425  0.97366503  0.49756104    -0.86430
C464        C  0.15017787  0.88066269  0.59996006     0.95900
C465        C  0.14048019  0.06347385  0.59595059     0.95700
N466        N  0.02926787  0.30682575  0.44239351    -0.06580
N467        N  0.06101655  0.33208282  0.43401973    -0.58700
N468        N  0.93308995  0.27780830  0.41399860    -0.06260
N469        N  0.90405822  0.28378181  0.38516256    -0.60830
N470        N  0.93224757  0.30783790  0.44220823    -0.05860
N471        N  0.90144970  0.33434881  0.43360492    -0.58680
N472        N  0.02628010  0.27814254  0.41305766    -0.05540
N473        N  0.05403976  0.28440254  0.38312006    -0.61180
C474        C  0.07613549  0.31757835  0.39683144     0.95590
C475        C  0.88455190  0.31922749  0.39746547     0.95370
N476        N  0.93151703  0.14750081  0.44412394    -0.06770
N477        N  0.90364094  0.11958744  0.43032088    -0.59280
N478        N  0.02954496  0.17950178  0.42043761    -0.04890
N479        N  0.05943421  0.17559239  0.39260621    -0.60530
N480        N  0.02924711  0.14691149  0.44570943    -0.06800
N481        N  0.05851287  0.11947636  0.43331508    -0.59550
N482        N  0.93230205  0.17977077  0.41865905    -0.04530
N483        N  0.90483419  0.17508002  0.38871064    -0.60620
Mn484      Mn  0.98031044  0.22817146  0.41628811     1.18440
C485        C  0.88664362  0.13784605  0.39546413     0.97680
C486        C  0.07809701  0.13849282  0.40012703     0.98340
N487        N  0.93301890  0.30968445  0.54255572    -0.06820
N488        N  0.90312725  0.33735969  0.55007149    -0.63130
N489        N  0.02812868  0.27857421  0.57259680    -0.05620
N490        N  0.05705285  0.28582864  0.60135814    -0.63800
N491        N  0.02887146  0.30785617  0.54350842    -0.06320
N492        N  0.05868345  0.33531346  0.55182065    -0.63390
N493        N  0.93317706  0.28068390  0.57176929    -0.05220
N494        N  0.90386856  0.28813846  0.59995745    -0.64080
Mn495      Mn  0.98100137  0.30919991  0.49274504     1.10660
C496        C  0.88557680  0.32360417  0.58623878     0.98900
C497        C  0.07562336  0.32152483  0.58829872     0.98970
N498        N  0.02589740  0.14584572  0.54808821    -0.06330
N499        N  0.05014833  0.11527748  0.56324746    -0.61710
N500        N  0.92802830  0.18325011  0.56991959    -0.05650
N501        N  0.89884508  0.17965343  0.59881371    -0.58440
N502        N  0.92854320  0.14998829  0.54556303    -0.06960
N503        N  0.90066579  0.12232753  0.55968726    -0.61270
N504        N  0.02611487  0.17804103  0.57392513    -0.05950
N505        N  0.05086169  0.17019573  0.60596759    -0.58460
Mn506      Mn  0.97887574  0.14544959  0.49580004     1.20190
Mn507      Mn  0.97915239  0.22979539  0.57255070     1.10090
Cl508      Cl  0.98015147  0.22825966  0.49441854    -0.86430
C509        C  0.06630108  0.13129527  0.59947547     0.95900
C510        C  0.88182577  0.14137996  0.59328218     0.95700
C511        C  0.83599087  0.08532317  0.36395526     0.00100
C512        C  0.86423173  0.11648041  0.35962387     0.00100
N513        N  0.76981128  0.03216183  0.42825703    -0.06580
N514        N  0.77446836  0.06148957  0.39995859    -0.58700
N515        N  0.80557233  0.93184723  0.44570136    -0.06260
N516        N  0.83494856  0.90628675  0.43033124    -0.60830
N517        N  0.77393350  0.93437520  0.41909123    -0.05860
N518        N  0.78096074  0.91032025  0.38627331    -0.58680
N519        N  0.80385406  0.02850054  0.45113228    -0.05540
N520        N  0.83328572  0.05395873  0.43638647    -0.61180
C521        C  0.81437378  0.07458181  0.40404894     0.95590
C522        C  0.81869864  0.89245337  0.39320078     0.95370
N523        N  0.77531857  0.92707318  0.57489504    -0.06770
N524        N  0.78184684  0.90149436  0.60618088    -0.59280
N525        N  0.80390955  0.02534612  0.55051399    -0.04890
N526        N  0.83132713  0.05424593  0.56252167    -0.60530
N527        N  0.77202174  0.02452311  0.57670008    -0.06800
N528        N  0.77654045  0.05366278  0.60556870    -0.59550
N529        N  0.80787938  0.92819807  0.54962446    -0.04530
N530        N  0.83809325  0.90368721  0.56519433    -0.60620
Mn531      Mn  0.80738931  0.97790008  0.49918336     1.18440
C532        C  0.82069606  0.88663511  0.60059744     0.97680
C533        C  0.81388427  0.07214095  0.59725079     0.98340
N534        N  0.67471528  0.93467086  0.41761781    -0.06820
N535        N  0.66983211  0.90642294  0.38788817    -0.63130
N536        N  0.64304585  0.02565309  0.45438027    -0.05620
N537        N  0.61475055  0.05537118  0.44894338    -0.63800
N538        N  0.67261233  0.02856204  0.42581690    -0.06320
N539        N  0.66506501  0.05993972  0.40008249    -0.63390
N540        N  0.64675615  0.92974663  0.44751840    -0.05220
N541        N  0.62313770  0.89681969  0.43950808    -0.64080
Mn542      Mn  0.72320289  0.98252859  0.42207082     1.10660
C543        C  0.63792509  0.88271540  0.40217113     0.98900
C544        C  0.62881240  0.07611902  0.41469890     0.98970
N545        N  0.67452861  0.01664319  0.58193259    -0.06330
N546        N  0.67084801  0.04641646  0.61008254    -0.61710
N547        N  0.64814864  0.92347786  0.54743646    -0.05650
N548        N  0.62195208  0.89226830  0.55436326    -0.58440
N549        N  0.67814270  0.92351791  0.57576521    -0.06960
N550        N  0.67298157  0.89276469  0.60272075    -0.61270
N551        N  0.64522683  0.01936319  0.55316361    -0.05950
N552        N  0.62154224  0.05249685  0.56029051    -0.58460
Mn553      Mn  0.72534689  0.97286850  0.57775304     1.20190
Mn554      Mn  0.64433590  0.97434241  0.50065009     1.10090
Cl555      Cl  0.72501452  0.97643025  0.49983706    -0.86430
C556        C  0.63807341  0.06871866  0.59598495     0.95900
C557        C  0.63796355  0.87360410  0.58898658     0.95700
C558        C  0.87672196  0.84139884  0.63506972     0.00100
C559        C  0.84260453  0.86704696  0.63750227     0.00100
N560        N  0.06341237  0.77373702  0.54976260    -0.06580
N561        N  0.09423211  0.79748547  0.56479394    -0.58700
N562        N  0.03395616  0.67684929  0.57686541    -0.06260
N563        N  0.04932205  0.65151713  0.60647724    -0.60830
N564        N  0.06016268  0.67778713  0.54504017    -0.05860
N565        N  0.09184093  0.65247847  0.55106333    -0.58680
N566        N  0.03161039  0.77444307  0.57576581    -0.05540
N567        N  0.03855709  0.80039116  0.60678740    -0.61180
C568        C  0.07782338  0.81443730  0.60057525     0.95590
C569        C  0.08560037  0.63601399  0.58939117     0.95370
N570        N  0.90211957  0.68475190  0.54747115    -0.06770
N571        N  0.86930938  0.66201976  0.55565291    -0.59280
N572        N  0.93778825  0.77797008  0.57381423    -0.04890
N573        N  0.93544765  0.80733452  0.60217815    -0.60530
N574        N  0.90519008  0.77954073  0.54874135    -0.06800
N575        N  0.87807184  0.80806070  0.56263488    -0.59550
N576        N  0.93012562  0.68113024  0.57753835    -0.04530
N577        N  0.91559738  0.65574827  0.60744970    -0.60620
Mn578      Mn  0.98316268  0.72659816  0.57719696     1.18440
C579        C  0.87734200  0.64366753  0.59276057     0.97680
C580        C  0.89778376  0.82551053  0.59635922     0.98340
N581        N  0.05744998  0.67809723  0.45000414    -0.06820
N582        N  0.08915125  0.65321790  0.44183027    -0.63130
N583        N  0.02728941  0.77755908  0.42405293    -0.05620
N584        N  0.03230113  0.80600585  0.39508962    -0.63800
N585        N  0.05980810  0.77617490  0.44909994    -0.06320
N586        N  0.08945924  0.80164515  0.43474804    -0.63390
N587        N  0.03198769  0.68047245  0.41766774    -0.05220
N588        N  0.04854261  0.65940067  0.38553470    -0.64080
Mn589      Mn  0.06106435  0.72677701  0.49818212     1.10660
C590        C  0.08440101  0.64214432  0.40132541     0.98900
C591        C  0.07166683  0.81991485  0.40042966     0.98970
N592        N  0.90206686  0.77949436  0.44718933    -0.06330
N593        N  0.87400249  0.80706628  0.43289377    -0.61710
N594        N  0.92802079  0.68166853  0.41844076    -0.05650
N595        N  0.91279722  0.65765082  0.38775741    -0.58440
N596        N  0.90156351  0.68216572  0.45015869    -0.06960
N597        N  0.87005175  0.65681414  0.44297219    -0.61270
N598        N  0.93441460  0.77851917  0.42194542    -0.05950
N599        N  0.93088350  0.80680721  0.39261808    -0.58460
Mn600      Mn  0.90154357  0.73178626  0.49844850     1.20190
Mn601      Mn  0.98052749  0.72865047  0.41951711     1.10090
Cl602      Cl  0.98147264  0.72773811  0.49840926    -0.86430
C603        C  0.89304290  0.82444860  0.39859433     0.95900
C604        C  0.87646816  0.64174128  0.40383163     0.95700
C605        C  0.84180214  0.87180288  0.35743846     0.00100
C606        C  0.87230326  0.84172655  0.36010553     0.00100
C607        C  0.13171027  0.85878323  0.63786647     0.00100
C608        C  0.10200599  0.82753387  0.63856575     0.00100
C609        C  0.86857347  0.11848804  0.63260258     0.00100
C610        C  0.83944841  0.08699700  0.63407619     0.00100
C611        C  0.12874096  0.85765468  0.36169800     0.00100
C612        C  0.09460047  0.83233248  0.36153184     0.00100
C613        C  0.09848649  0.11766326  0.36255934     0.00100
C614        C  0.13003397  0.08876318  0.36060749     0.00100
C615        C  0.11894156  0.08042233  0.63467636     0.00100
C616        C  0.08542492  0.10741728  0.63584823     0.00100
C617        C  0.34032584  0.83939992  0.61009496     0.00100
C618        C  0.37391802  0.83893527  0.63680433     0.00100
C619        C  0.11576114  0.33738290  0.60558346     0.00100
C620        C  0.11753478  0.36956855  0.63356196     0.00100
C621        C  0.84299029  0.33198138  0.37987348     0.00100
C622        C  0.84112961  0.35768046  0.34508339     0.00100
C623        C  0.37270348  0.11199631  0.35864929     0.00100
C624        C  0.34196790  0.11342835  0.38892949     0.00100
C625        C  0.34670150  0.83590106  0.39124592     0.00100
C626        C  0.37048577  0.83573507  0.35549277     0.00100
C627        C  0.11871806  0.32690197  0.38051309     0.00100
C628        C  0.12232911  0.35963562  0.35287821     0.00100
C629        C  0.34222636  0.11374183  0.60819639     0.00100
C630        C  0.37279340  0.11185592  0.63825846     0.00100
C631        C  0.84719080  0.37082158  0.63440523     0.00100
C632        C  0.84645686  0.34032299  0.60440758     0.00100
C633        C  0.34477758  0.09088870  0.14414075     0.00100
C634        C  0.34495854  0.12082337  0.11375705     0.00100
C635        C  0.61818305  0.08858508  0.14491411     0.00100
C636        C  0.61549824  0.11819045  0.11412432     0.00100
C637        C  0.33707010  0.35667498  0.86266393     0.00100
C638        C  0.37123310  0.33009522  0.86224861     0.00100
C639        C  0.59775981  0.32995665  0.86395469     0.00100
C640        C  0.62555386  0.36201602  0.86153422     0.00100
C641        C  0.59523936  0.83889810  0.35666959     0.00100
C642        C  0.62796772  0.84089917  0.38474445     0.00100
C643        C  0.58452841  0.11413877  0.36389119     0.00100
C644        C  0.61018442  0.11489007  0.39813510     0.00100
C645        C  0.59783515  0.61805889  0.86143193     0.00100
C646        C  0.63144428  0.59195190  0.85802491     0.00100
C647        C  0.12663547  0.61116310  0.10749166     0.00100
C648        C  0.09445205  0.61487246  0.13520329     0.00100
C649        C  0.12541779  0.33223878  0.11486887     0.00100
C650        C  0.09423243  0.33345655  0.14390194     0.00100
C651        C  0.34053919  0.58264948  0.86328663     0.00100
C652        C  0.36723574  0.61623976  0.86274992     0.00100
C653        C  0.12268327  0.59802877  0.34942806     0.00100
C654        C  0.12315834  0.63153132  0.37628039     0.00100
C655        C  0.84155918  0.59251397  0.35276064     0.00100
C656        C  0.83901408  0.62654476  0.37892974     0.00100
C657        C  0.84764288  0.59167367  0.64564925     0.00100
C658        C  0.84234852  0.62155285  0.61546496     0.00100
C659        C  0.62983717  0.11121726  0.61138669     0.00100
C660        C  0.59766452  0.11407991  0.64028282     0.00100
C661        C  0.59280208  0.83854650  0.64129526     0.00100
C662        C  0.62090512  0.83530195  0.60878048     0.00100
C663        C  0.12271464  0.61690106  0.61222087     0.00100
C664        C  0.11948566  0.58986656  0.64523093     0.00100
C665        C  0.98484205  0.75433724  0.74968986     0.00100
C666        C  0.97661722  0.72586990  0.78129839     0.00100
C667        C  0.73869772  0.97598279  0.78454844     0.00100
C668        C  0.76905432  0.96941506  0.75438296     0.00100
C669        C  0.76029743  0.72930538  0.00319408     0.00100
C670        C  0.73122609  0.76104283  0.00544147     0.00100
C671        C  0.48071187  0.72704195  0.72342295     0.00100
C672        C  0.47739080  0.70000765  0.75615534     0.00100
C673        C  0.73789392  0.47323835  0.72547793     0.00100
C674        C  0.70527335  0.47597158  0.75272847     0.00100
C675        C  0.69980990  0.72219690  0.49906646     0.00100
C676        C  0.72943918  0.69120343  0.49627960     0.00100
C677        C  0.62726484  0.35926565  0.13862897     0.00100
C678        C  0.59927103  0.32725350  0.13446857     0.00100
C679        C  0.59396467  0.61814119  0.13190319     0.00100
C680        C  0.62325505  0.58734665  0.13738548     0.00100
C681        C  0.35283299  0.57726984  0.13731962     0.00100
C682        C  0.38145555  0.60878864  0.13771964     0.00100
C683        C  0.34036414  0.36248138  0.13562232     0.00100
C684        C  0.37569925  0.33824521  0.13830586     0.00100
C685        C  0.57392378  0.80467657  0.66997259    -0.05930
C686        C  0.54614112  0.81873953  0.70198581    -0.33360
C687        C  0.52033358  0.79220026  0.72408938     0.35890
C688        C  0.51994621  0.74982379  0.71441365    -0.06290
C689        C  0.55159513  0.73345960  0.68883963    -0.33260
C690        C  0.57967977  0.76040251  0.66761527     0.35800
H691        H  0.54130964  0.85106780  0.70966257     0.16170
O692        O  0.49182887  0.80874123  0.75191128    -0.60760
H693        H  0.55321567  0.70003775  0.68365923     0.16180
O694        O  0.61373008  0.74288105  0.64829283    -0.60850
H695        H  0.60306763  0.71954518  0.63074856     0.43180
H696        H  0.50832763  0.81701155  0.77695474     0.43130
C697        C  0.63972681  0.79711533  0.59101461    -0.05930
C698        C  0.68364636  0.79383705  0.59107389    -0.33360
C699        C  0.70418080  0.76747081  0.56281179     0.35890
C700        C  0.68079549  0.73987495  0.53756571    -0.06290
C701        C  0.63677765  0.74080365  0.54009625    -0.33260
C702        C  0.61631858  0.77079225  0.56466272     0.35800
H703        H  0.70223157  0.81504114  0.60992824     0.16170
O704        O  0.74674133  0.77115243  0.55735987    -0.60760
H705        H  0.61824936  0.72140036  0.51935790     0.16180
O706        O  0.57369588  0.77525412  0.56157975    -0.60850
H707        H  0.56927784  0.79571114  0.53860067     0.43180
H708        H  0.75954800  0.76476082  0.58501246     0.43130
C709        C  0.80182747  0.62853490  0.59371510    -0.05930
C710        C  0.79879981  0.61130157  0.55369428    -0.33360
C711        C  0.77265650  0.62825244  0.52356053     0.35890
C712        C  0.74762312  0.66435008  0.53225721    -0.06290
C713        C  0.74483396  0.67541838  0.57545883    -0.33260
C714        C  0.77294731  0.65927615  0.60551821     0.35800
H715        H  0.82009346  0.58643526  0.54452245     0.16170
O716        O  0.77400752  0.60905990  0.48541286    -0.60760
H717        H  0.72238623  0.69718595  0.58708072     0.16180
O718        O  0.77360527  0.67560409  0.64532387    -0.60850
H719        H  0.75666624  0.65605892  0.66249251     0.43180
H720        H  0.75440463  0.58514505  0.48767023     0.43130
C721        C  0.81299919  0.56834637  0.66857035    -0.05930
C722        C  0.82144632  0.55485238  0.71012285    -0.33360
C723        C  0.79789757  0.52342621  0.72901780     0.35890
C724        C  0.75994649  0.51124228  0.71099380    -0.06290
C725        C  0.74720097  0.52975202  0.67358741    -0.33260
C726        C  0.77528301  0.55349861  0.64997557     0.35800
H727        H  0.84883758  0.56505309  0.72694071     0.16170
O728        O  0.81359909  0.50312031  0.76352761    -0.60760
H729        H  0.71774524  0.52081196  0.65952585     0.16180
O730        O  0.76885966  0.55389836  0.60758147    -0.60850
H731        H  0.74096940  0.56698139  0.60320440     0.43180
H732        H  0.83555574  0.48406723  0.75253588     0.43130
C733        C  0.74682086  0.68412377  0.45327479    -0.05930
C734        C  0.73134154  0.65131550  0.42945601    -0.33360
C735        C  0.75820808  0.63084572  0.40148124     0.35890
C736        C  0.79788938  0.64930041  0.39064552    -0.06290
C737        C  0.80241929  0.69180737  0.40227241    -0.33260
C738        C  0.78061248  0.70711840  0.43724712     0.35800
H739        H  0.70334541  0.63527672  0.44000723     0.16170
O740        O  0.74769824  0.59042787  0.39359877    -0.60760
H741        H  0.82920465  0.70952340  0.39133675     0.16180
O742        O  0.79479060  0.74221610  0.45737975    -0.60850
H743        H  0.81491682  0.73195143  0.47874789     0.43180
H744        H  0.72232194  0.59165001  0.37562834     0.43130
C745        C  0.38017523  0.64301651  0.82512633    -0.05930
C746        C  0.39136258  0.68493640  0.83393042    -0.33360
C747        C  0.42168384  0.70547850  0.81034228     0.35890
C748        C  0.43596811  0.68764429  0.77291186    -0.06290
C749        C  0.41634007  0.65186943  0.75769570    -0.33260
C750        C  0.38999432  0.62848944  0.78387716     0.35800
H751        H  0.38067448  0.70068828  0.86182567     0.16170
O752        O  0.43890984  0.74185238  0.82530060    -0.60760
H753        H  0.42620226  0.63872327  0.72789059     0.16180
O754        O  0.37776439  0.59063004  0.76901852    -0.60850
H755        H  0.35465466  0.59666875  0.74908056     0.43180
H756        H  0.45932360  0.73305219  0.84705590     0.43130
C757        C  0.69332140  0.51778290  0.77007623    -0.05930
C758        C  0.65892481  0.53946705  0.75402368    -0.33360
C759        C  0.63839990  0.56968655  0.77872304     0.35890
C760        C  0.65599209  0.58185805  0.81792532    -0.06290
C761        C  0.69840025  0.57074126  0.82417070    -0.33260
C762        C  0.71517746  0.53578751  0.80364259     0.35800
H763        H  0.64554397  0.53027014  0.72416505     0.16170
O764        O  0.60327318  0.58809381  0.76269913    -0.60760
H765        H  0.71503356  0.58248423  0.85138979     0.16180
O766        O  0.75028466  0.51691095  0.81948315    -0.60850
H767        H  0.77222187  0.53879527  0.81902128     0.43180
H768        H  0.58479328  0.56513985  0.75296190     0.43130
C769        C  0.57443572  0.63692414  0.82650020    -0.05930
C770        C  0.57842600  0.67985516  0.81868248    -0.33360
C771        C  0.54747840  0.70150331  0.79622791     0.35890
C772        C  0.51409787  0.67936653  0.77723270    -0.06290
C773        C  0.51168322  0.63594654  0.78406267    -0.33260
C774        C  0.53942254  0.61556471  0.81087863     0.35800
H775        H  0.60322357  0.69737007  0.83383201     0.16170
O776        O  0.54834109  0.74424897  0.79680428    -0.60760
H777        H  0.48664923  0.61762551  0.77079460     0.16180
O778        O  0.53125098  0.57529795  0.82366354    -0.60850
H779        H  0.52724249  0.55844861  0.79783681     0.43180
H780        H  0.53378882  0.75242978  0.82308421     0.43130
C781        C  0.65321795  0.80466680  0.40342808    -0.05930
C782        C  0.63760849  0.76343589  0.40673200    -0.33360
C783        C  0.65440744  0.73475497  0.43542012     0.35890
C784        C  0.68765481  0.74670241  0.46130850    -0.06290
C785        C  0.70751403  0.78457228  0.45401437    -0.33260
C786        C  0.69201537  0.81253131  0.42432030     0.35800
H787        H  0.61199807  0.75224300  0.38872603     0.16170
O788        O  0.63612813  0.69627754  0.44014982    -0.60760
H789        H  0.73468026  0.79324230  0.47240122     0.16180
O790        O  0.71618818  0.84666326  0.41522874    -0.60850
H791        H  0.71919899  0.86237906  0.44196683     0.43180
H792        H  0.64335627  0.68055500  0.41428404     0.43130
C793        C  0.64110951  0.37863644  0.82062156    -0.05930
C794        C  0.61903355  0.41130506  0.80126833    -0.33360
C795        C  0.63845424  0.43815890  0.77275661     0.35890
C796        C  0.68249416  0.43840163  0.76947166    -0.06290
C797        C  0.70464642  0.40618731  0.78977251    -0.33260
C798        C  0.68406749  0.37457126  0.81188067     0.35800
H799        H  0.58800005  0.41977524  0.81156836     0.16170
O800        O  0.61414248  0.46501059  0.74967488    -0.60760
H801        H  0.73793920  0.40734817  0.79273054     0.16180
O802        O  0.70751245  0.34490119  0.83222244    -0.60850
H803        H  0.70362150  0.31892522  0.81570917     0.43180
H804        H  0.59760914  0.48158803  0.77019583     0.43130
C805        C  0.80905733  0.38505014  0.65763875    -0.05930
C806        C  0.77805967  0.40924637  0.63801379    -0.33360
C807        C  0.74707340  0.42925334  0.66151070     0.35890
C808        C  0.75254410  0.43404508  0.70510330    -0.06290
C809        C  0.78350138  0.40997692  0.72480033    -0.33260
C810        C  0.80813445  0.38208132  0.70167261     0.35800
H811        H  0.77917681  0.41612222  0.60513376     0.16170
O812        O  0.71497221  0.44886515  0.64086998    -0.60760
H813        H  0.79177950  0.41515365  0.75723590     0.16180
O814        O  0.83326217  0.35395073  0.72210393    -0.60850
H815        H  0.84906618  0.37033262  0.74305848     0.43180
H816        H  0.68982370  0.43169978  0.64677633     0.43130
C817        C  0.39200448  0.80128090  0.65639000    -0.05930
C818        C  0.42421083  0.78024244  0.63537136    -0.33360
C819        C  0.44810914  0.74993201  0.65586418     0.35890
C820        C  0.44396435  0.74426534  0.69965038    -0.06290
C821        C  0.41135887  0.76542538  0.72064741    -0.33260
C822        C  0.38469629  0.79264828  0.69906051     0.35800
H823        H  0.43079851  0.78744879  0.60275765     0.16170
O824        O  0.47726773  0.72751878  0.63345062    -0.60760
H825        H  0.40851441  0.76422382  0.75429968     0.16180
O826        O  0.35471029  0.81427820  0.72103302    -0.60850
H827        H  0.32822141  0.79899574  0.71584934     0.43180
H828        H  0.49674357  0.74835286  0.62118656     0.43130
C829        C  0.79043114  0.00353764  0.72797943    -0.05930
C830        C  0.80514544  0.99156787  0.68779840    -0.33360
C831        C  0.83273315  0.01624164  0.66488798     0.35890
C832        C  0.83309074  0.05940744  0.67205756    -0.06290
C833        C  0.81579158  0.07344948  0.71031258    -0.33260
C834        C  0.80048824  0.04491338  0.74057946     0.35800
H835        H  0.79729686  0.96172762  0.67433549     0.16170
O836        O  0.85553208  0.99926830  0.63230300    -0.60760
H837        H  0.81223142  0.10594298  0.71692766     0.16180
O838        O  0.79876811  0.05709684  0.78188138    -0.60850
H839        H  0.78379165  0.08428565  0.78256917     0.43180
H840        H  0.83645645  0.98088313  0.61618836     0.43130
C841        C  0.02753263  0.76627915  0.73363538    -0.05930
C842        C  0.04717853  0.74289261  0.70209453    -0.33360
C843        C  0.07848995  0.76110969  0.67656658     0.35890
C844        C  0.08705901  0.80466729  0.67860352    -0.06290
C845        C  0.07155111  0.82551268  0.71443065    -0.33260
C846        C  0.04434695  0.80593174  0.74287638     0.35800
H847        H  0.03677612  0.71131777  0.69569041     0.16170
O848        O  0.09825892  0.73708974  0.64703116    -0.60760
H849        H  0.07765055  0.85746428  0.72070299     0.16180
O850        O  0.03253474  0.82676241  0.77872145    -0.60850
H851        H  0.05822069  0.82900132  0.79607739     0.43180
H852        H  0.07603550  0.72653311  0.62823930     0.43130
C853        C  0.89490185  0.82175707  0.67381251    -0.05930
C854        C  0.89258701  0.77794148  0.67673555    -0.33360
C855        C  0.92428315  0.75562205  0.69776219     0.35890
C856        C  0.94969176  0.77640961  0.72732870    -0.06290
C857        C  0.94798856  0.82020773  0.72801912    -0.33260
C858        C  0.92713270  0.84190001  0.69611712     0.35800
H859        H  0.87236927  0.76129214  0.65509399     0.16170
O860        O  0.93613802  0.71697350  0.68297688    -0.60760
H861        H  0.96795792  0.83780512  0.74844862     0.16180
O862        O  0.94526046  0.87734046  0.67956732    -0.60850
H863        H  0.96109402  0.89163439  0.70221193     0.43180
H864        H  0.91028138  0.70227138  0.67410061     0.43130
C865        C  0.82474155  0.87874933  0.68024183    -0.05930
C866        C  0.78175877  0.87242008  0.68906386    -0.33360
C867        C  0.76078524  0.89894380  0.71760536     0.35890
C868        C  0.78426165  0.92627254  0.74325174    -0.06290
C869        C  0.82788063  0.92170074  0.74344357    -0.33260
C870        C  0.84757896  0.90464914  0.70794987     0.35800
H871        H  0.76329914  0.85239371  0.66883288     0.16170
O872        O  0.71791925  0.90136890  0.71653869    -0.60760
H873        H  0.84590299  0.94281449  0.76302214     0.16180
O874        O  0.88368023  0.92333764  0.69412802    -0.60850
H875        H  0.90077780  0.93025995  0.71921725     0.43180
H876        H  0.71141373  0.92231299  0.69452152     0.43130
C877        C  0.72255354  0.78186290  0.04734062    -0.05930
C878        C  0.69901744  0.76093574  0.07846431    -0.33360
C879        C  0.67129927  0.78268288  0.10457280     0.35890
C880        C  0.66094630  0.82422718  0.09459717    -0.06290
C881        C  0.68776843  0.84588737  0.06714475    -0.33260
C882        C  0.72174679  0.82586706  0.04774283     0.35800
H883        H  0.69652789  0.72764135  0.07926445     0.16170
O884        O  0.64815853  0.76086750  0.13350359    -0.60760
H885        H  0.67958658  0.87617137  0.05557006     0.16180
O886        O  0.74710076  0.84798133  0.02082140    -0.60850
H887        H  0.72879582  0.85843774  0.99793914     0.43180
H888        H  0.65946058  0.76940715  0.16120683     0.43130
C889        C  0.65252003  0.88887635  0.84572095    -0.05930
C890        C  0.69191366  0.87402513  0.83214614    -0.33360
C891        C  0.72252553  0.90158527  0.81602266     0.35890
C892        C  0.71034316  0.94217600  0.80295788    -0.06290
C893        C  0.66928608  0.95469182  0.81369915    -0.33260
C894        C  0.64510739  0.93193487  0.84145236     0.35800
H895        H  0.69955585  0.84161846  0.83258442     0.16170
O896        O  0.76372239  0.88932719  0.81602996    -0.60760
H897        H  0.65673536  0.98437490  0.80383522     0.16180
O898        O  0.61060572  0.95080329  0.85898449    -0.60850
H899        H  0.61352941  0.94703527  0.88975961     0.43180
H900        H  0.76488771  0.86242748  0.80054391     0.43130
C901        C  0.70388543  0.77788651  0.96957069    -0.05930
C902        C  0.66553152  0.79665253  0.98148578    -0.33360
C903        C  0.64403826  0.82380616  0.95512218     0.35890
C904        C  0.65023858  0.82096857  0.91174463    -0.06290
C905        C  0.68390576  0.79604454  0.89764762    -0.33260
C906        C  0.71411033  0.78038826  0.92620757     0.35800
H907        H  0.65314063  0.79308123  0.01269379     0.16170
O908        O  0.61411114  0.85031609  0.97130481    -0.60760
H909        H  0.68655150  0.78749418  0.86500008     0.16180
O910        O  0.75352819  0.77120350  0.91171755    -0.60850
H911        H  0.74996682  0.75383369  0.88613602     0.43180
H912        H  0.59537482  0.83314647  0.98907549     0.43130
C913        C  0.66516766  0.06311273  0.84493964    -0.05930
C914        C  0.67442724  0.07191093  0.80240591    -0.33360
C915        C  0.70372849  0.04724185  0.78034584     0.35890
C916        C  0.72857322  0.01815174  0.80256551    -0.06290
C917        C  0.72764645  0.01945413  0.84664471    -0.33260
C918        C  0.69267558  0.03644334  0.86683374     0.35800
H919        H  0.65454959  0.09310002  0.78486905     0.16170
O920        O  0.70281009  0.04673585  0.73727438    -0.60760
H921        H  0.74660955  0.99735171  0.86413855     0.16180
O922        O  0.68193566  0.02091900  0.90533698    -0.60850
H923        H  0.67341965  0.99155498  0.90065148     0.43180
H924        H  0.71429558  0.07412242  0.72841382     0.43130
C925        C  0.05968648  0.64529519  0.85599242    -0.05930
C926        C  0.07722311  0.67994027  0.83539108    -0.33360
C927        C  0.05172547  0.70866366  0.81339586     0.35890
C928        C  0.00891249  0.69898640  0.80499989    -0.06290
C929        C  0.99344392  0.66238385  0.82450444    -0.33260
C930        C  0.01642123  0.63982684  0.85369230     0.35800
H931        H  0.11064071  0.68525410  0.83640745     0.16170
O932        O  0.06871304  0.74658800  0.80377826    -0.60760
H933        H  0.96229911  0.65117292  0.81878288     0.16180
O934        O  0.99695016  0.61036456  0.87829330    -0.60850
H935        H  0.98311282  0.59066375  0.85882042     0.43180
H936        H  0.09315448  0.74069032  0.78540277     0.43130
C937        C  0.81796523  0.65418026  0.90658536    -0.05930
C938        C  0.77390577  0.65939773  0.90591263    -0.33360
C939        C  0.75353469  0.68416809  0.93659845     0.35890
C940        C  0.77748601  0.70933122  0.96400443    -0.06290
C941        C  0.82121471  0.70755822  0.96006750    -0.33260
C942        C  0.84058443  0.67569776  0.93749470     0.35800
H943        H  0.75518322  0.64018990  0.88517292     0.16170
O944        O  0.71076654  0.68270768  0.94010432    -0.60760
H945        H  0.84093231  0.72705552  0.97882166     0.16180
O946        O  0.87842187  0.65996162  0.95137358    -0.60850
H947        H  0.89539869  0.68362895  0.96211715     0.43180
H948        H  0.70513657  0.66138058  0.96196773     0.43130
C949        C  0.87654288  0.66178753  0.83622974    -0.05930
C950        C  0.89948599  0.69201079  0.85892438    -0.33360
C951        C  0.92324592  0.72292757  0.83874318     0.35890
C952        C  0.93172457  0.71855512  0.79560574    -0.06290
C953        C  0.90501050  0.69184330  0.77261868    -0.33260
C954        C  0.87436505  0.66740726  0.79244172     0.35800
H955        H  0.90504964  0.68879438  0.89162849     0.16170
O956        O  0.94733070  0.74912802  0.86277610    -0.60760
H957        H  0.91184628  0.68353634  0.74098775     0.16180
O958        O  0.84971024  0.64169753  0.76844716    -0.60850
H959        H  0.82285735  0.65693583  0.76523397     0.43180
H960        H  0.93470361  0.77719711  0.85904195     0.43130
C961        C  0.81279804  0.65491202  0.10232231    -0.05930
C962        C  0.83715242  0.68421120  0.08024192    -0.33360
C963        C  0.81779625  0.71564171  0.05671788     0.35890
C964        C  0.77648309  0.70947360  0.04258994    -0.06290
C965        C  0.75282596  0.67783001  0.06151492    -0.33260
C966        C  0.76921884  0.65473387  0.09499798     0.35800
H967        H  0.87097480  0.68394608  0.08293863     0.16170
O968        O  0.83998254  0.75075369  0.04618967    -0.60760
H969        H  0.72158806  0.67082299  0.05025179     0.16180
O970        O  0.74378874  0.62786934  0.11669038    -0.60850
H971        H  0.73417746  0.60691218  0.09595631     0.43180
H972        H  0.82948617  0.77288563  0.06530828     0.43130
C973        C  0.72163707  0.01804537  0.19422732    -0.05930
C974        C  0.72229294  0.02964224  0.15155849    -0.33360
C975        C  0.68889832  0.05208152  0.13397528     0.35890
C976        C  0.66004806  0.07243094  0.16056237    -0.06290
C977        C  0.66811594  0.07118746  0.20427917    -0.33260
C978        C  0.69523089  0.04089716  0.22117923     0.35800
H979        H  0.74585584  0.01713954  0.13075226     0.16170
O980        O  0.68214030  0.04956041  0.09145949    -0.60760
H981        H  0.64897548  0.08927088  0.22569254     0.16180
O982        O  0.69431164  0.03280410  0.26347260    -0.60850
H983        H  0.66768159  0.01768644  0.26843503     0.43180
H984        H  0.70742214  0.06156327  0.07796023     0.43130
C985        C  0.71841494  0.94043503  0.18811879    -0.05930
C986        C  0.71441063  0.93727818  0.14428334    -0.33360
C987        C  0.67780124  0.92026066  0.12718356     0.35890
C988        C  0.65455077  0.89183310  0.15137933    -0.06290
C989        C  0.66492944  0.88732284  0.19406655    -0.33260
C990        C  0.69003707  0.91759205  0.21292923     0.35800
H991        H  0.73577048  0.95319408  0.12367673     0.16170
O992        O  0.66129875  0.93611288  0.09046819    -0.60760
H993        H  0.64769118  0.86588898  0.21387693     0.16180
O994        O  0.68558290  0.92563246  0.25510130    -0.60850
H995        H  0.65904819  0.94157895  0.25766938     0.43180
H996        H  0.68484887  0.94611450  0.07278244     0.43130
C997        C  0.82877520  0.88668852  0.31455826    -0.05930
C998        C  0.85224162  0.91732238  0.29353078    -0.33360
C999        C  0.83787337  0.93547468  0.25609255     0.35890
C1000       C  0.79524808  0.93086784  0.24492405    -0.06290
C1001       C  0.77505669  0.89494995  0.26124857    -0.33260
C1002       C  0.79133089  0.87326113  0.29603006     0.35800
H1003       H  0.87966705  0.93053453  0.30816197     0.16170
O1004       O  0.86142502  0.96644828  0.23803548    -0.60760
H1005       H  0.74617851  0.88361468  0.24926173     0.16180
O1006       O  0.76910483  0.84086683  0.31335830    -0.60850
H1007       H  0.74510007  0.85406339  0.32808406     0.43180
H1008       H  0.87111539  0.95457531  0.21094989     0.43130
C1009       C  0.78283987  0.00630985  0.26722635    -0.05930
C1010       C  0.79121999  0.99331502  0.30850086    -0.33360
C1011       C  0.81754052  0.01657687  0.33381746     0.35890
C1012       C  0.82112525  0.05952588  0.32725163    -0.06290
C1013       C  0.80612749  0.07578347  0.28881836    -0.33260
C1014       C  0.79219899  0.04842523  0.25691159     0.35800
H1015       H  0.78330182  0.96215629  0.31869098     0.16170
O1016       O  0.84140849  0.99714135  0.36385746    -0.60760
H1017       H  0.80729448  0.10887350  0.28225355     0.16180
O1018       O  0.79151337  0.06219112  0.21611614    -0.60850
H1019       H  0.77325693  0.08730920  0.21582503     0.43180
H1020       H  0.82144527  0.98412401  0.38336276     0.43130
C1021       C  0.87154727  0.65393177  0.18095165    -0.05930
C1022       C  0.87611406  0.69538466  0.16638826    -0.33360
C1023       C  0.91052331  0.71993006  0.17884536     0.35890
C1024       C  0.93936903  0.70366915  0.20780879    -0.06290
C1025       C  0.92899646  0.66678191  0.22898582    -0.33260
C1026       C  0.89175349  0.64583837  0.21948605     0.35800
H1027       H  0.85258389  0.71040122  0.14796242     0.16170
O1028       O  0.91585046  0.75924551  0.16253766    -0.60760
H1029       H  0.94909422  0.65495349  0.25371350     0.16180
O1030       O  0.87941828  0.61287970  0.24381639    -0.60850
H1031       H  0.85988814  0.62523004  0.26457036     0.43180
H1032       H  0.92308490  0.75500707  0.13253793     0.43130
C1033       C  0.01767904  0.70641219  0.19392124    -0.05930
C1034       C  0.01517680  0.70134604  0.14980391    -0.33360
C1035       C  0.04340596  0.67531347  0.12776700     0.35890
C1036       C  0.07696634  0.65622789  0.14906971    -0.06290
C1037       C  0.08285821  0.66601085  0.19150248    -0.33260
C1038       C  0.05213973  0.68735294  0.21438285     0.35800
H1039       H  0.98899097  0.71453884  0.13280011     0.16170
O1040       O  0.03585483  0.66591129  0.08643328    -0.60760
H1041       H  0.10745954  0.65022953  0.20874074     0.16180
O1042       O  0.05316974  0.68269783  0.25686045    -0.60850
H1043       H  0.03704652  0.65684742  0.26261781     0.43180
H1044       H  0.01660716  0.64161507  0.08701494     0.43130
C1045       C  0.02136011  0.77191626  0.26473504    -0.05930
C1046       C  0.03740153  0.81199722  0.25591661    -0.33360
C1047       C  0.06072744  0.83381150  0.28656419     0.35890
C1048       C  0.07706964  0.81209423  0.32184917    -0.06290
C1049       C  0.06711945  0.76938189  0.32501203    -0.33260
C1050       C  0.03481363  0.75226919  0.30157943     0.35800
H1051       H  0.02691492  0.82862455  0.22827269     0.16170
O1052       O  0.06321079  0.87641175  0.28344341    -0.60760
H1053       H  0.07688084  0.75190161  0.35190361     0.16180
O1054       O  0.01387552  0.71818804  0.31725812    -0.60850
H1055       H  0.99540759  0.72933127  0.33969790     0.43180
H1056       H  0.03990290  0.88725859  0.30094942     0.43130
C1057       C  0.94288446  0.77698818  0.26450956    -0.05930
C1058       C  0.94075707  0.82084811  0.26407865    -0.33360
C1059       C  0.91937012  0.84251667  0.29550087     0.35890
C1060       C  0.88969288  0.82183250  0.32071672    -0.06290
C1061       C  0.88637910  0.77822927  0.31653366    -0.33260
C1062       C  0.91517218  0.75560139  0.29186350     0.35800
H1063       H  0.96083494  0.83869146  0.24365406     0.16170
O1064       O  0.93310014  0.88175721  0.30552896    -0.60760
H1065       H  0.86622999  0.76123473  0.33794574     0.16180
O1066       O  0.92055133  0.71398141  0.30031897    -0.60850
H1067       H  0.89233933  0.70108398  0.29865113     0.43180
H1068       H  0.95544284  0.87754929  0.32676814     0.43130
C1069       C  0.18167920  0.94058359  0.73229256    -0.05930
C1070       C  0.13827430  0.93717661  0.72508996    -0.33360
C1071       C  0.12237258  0.91158918  0.69385571     0.35890
C1072       C  0.14670103  0.87905305  0.67751089    -0.06290
C1073       C  0.18942884  0.87752810  0.68897588    -0.33260
C1074       C  0.20768246  0.91036011  0.71254778     0.35800
H1075       H  0.11585547  0.95660363  0.74052132     0.16170
O1076       O  0.08270317  0.91912851  0.67887775    -0.60760
H1077       H  0.20977450  0.85498955  0.67377412     0.16180
O1078       O  0.25036892  0.91553105  0.71135416    -0.60850
H1079       H  0.26276460  0.88850875  0.72028238     0.43180
H1080       H  0.08630794  0.94027748  0.65640075     0.43130
C1081       C  0.18121577  0.01980061  0.73743017    -0.05930
C1082       C  0.20389390  0.04106155  0.70623110    -0.33360
C1083       C  0.18378539  0.07116474  0.68158214     0.35890
C1084       C  0.13998847  0.06759160  0.67581198    -0.06290
C1085       C  0.11798356  0.04652852  0.70777539    -0.33260
C1086       C  0.13903999  0.03048007  0.74263123     0.35800
H1087       H  0.23694363  0.03483772  0.70152289     0.16170
O1088       O  0.20720884  0.09912086  0.65896549    -0.60760
H1089       H  0.08558176  0.03925091  0.70493677     0.16180
O1090       O  0.11703672  0.01808259  0.77748801    -0.60850
H1091       H  0.12522447  0.03799285  0.79988656     0.43180
H1092       H  0.20182719  0.12663157  0.67225987     0.43130
C1093       C  0.23831045  0.01761121  0.81307429    -0.05930
C1094       C  0.25353557  0.05516963  0.79507046    -0.33360
C1095       C  0.28511094  0.07876546  0.81459650     0.35890
C1096       C  0.30415145  0.06379683  0.85136883    -0.06290
C1097       C  0.28615456  0.02936605  0.87154320    -0.33260
C1098       C  0.25050332  0.00960203  0.85504680     0.35800
H1099       H  0.24521073  0.06514626  0.76438375     0.16170
O1100       O  0.30119513  0.11297513  0.79431072    -0.60760
H1101       H  0.30117411  0.01594970  0.89880979     0.16180
O1102       O  0.23204959  0.97758484  0.87702722    -0.60850
H1103       H  0.25479684  0.95775477  0.88416568     0.43180
H1104       H  0.28769842  0.13738949  0.80794207     0.43130
C1105       C  0.25391868  0.94236450  0.79472776    -0.05930
C1106       C  0.24091706  0.90172407  0.80575210    -0.33360
C1107       C  0.27129275  0.87224849  0.81986422     0.35890
C1108       C  0.31115851  0.88699926  0.83409022    -0.06290
C1109       C  0.31998614  0.92931079  0.82668363    -0.33260
C1110       C  0.29633053  0.95116443  0.79799192     0.35800
H1111       H  0.20871817  0.89228492  0.80113532     0.16170
O1112       O  0.26288500  0.83030206  0.81679320    -0.60760
H1113       H  0.34888459  0.94341853  0.83726641     0.16180
O1114       O  0.31391429  0.98236160  0.77463863    -0.60850
H1115       H  0.32115064  0.00381292  0.79527179     0.43180
H1116       H  0.23528759  0.82588290  0.83041892     0.43130
C1117       C  0.02905188  0.16833236  0.74118640    -0.05930
C1118       C  0.02628611  0.12438742  0.73898644    -0.33360
C1119       C  0.04148852  0.10399716  0.70284553     0.35890
C1120       C  0.07205437  0.12387315  0.67789815    -0.06290
C1121       C  0.08523029  0.16384926  0.68920390    -0.33260
C1122       C  0.05996218  0.18783794  0.71554636     0.35800
H1123       H  0.00212894  0.10884262  0.75710726     0.16170
O1124       O  0.02140337  0.06886735  0.68804606    -0.60760
H1125       H  0.10826378  0.17960678  0.66984116     0.16180
O1126       O  0.05917296  0.22955037  0.70702493    -0.60850
H1127       H  0.03788480  0.23318491  0.68460584     0.43180
H1128       H  0.01496142  0.05099659  0.71267945     0.43130
C1129       C  0.95209669  0.17457578  0.72402443    -0.05930
C1130       C  0.96345334  0.15971785  0.68375440    -0.33360
C1131       C  0.93896357  0.13069971  0.66250404     0.35890
C1132       C  0.89578511  0.13005688  0.66976712    -0.06290
C1133       C  0.88126571  0.15164482  0.70582816    -0.33260
C1134       C  0.90989847  0.16734423  0.73597222     0.35800
H1135       H  0.99375546  0.16637491  0.67053226     0.16170
O1136       O  0.95634946  0.10575838  0.63185118    -0.60760
H1137       H  0.84854329  0.15806887  0.71039514     0.16180
O1138       O  0.89587134  0.17552049  0.77576040    -0.60850
H1139       H  0.90451172  0.15097952  0.79267756     0.43180
H1140       H  0.97331926  0.12412490  0.61359324     0.43130
C1141       C  0.94835811  0.24222949  0.80070982    -0.05930
C1142       C  0.94852930  0.25359809  0.84349533    -0.33360
C1143       C  0.92521013  0.28712604  0.85825405     0.35890
C1144       C  0.88974245  0.29985929  0.83604874    -0.06290
C1145       C  0.88528112  0.28560760  0.79425790    -0.33260
C1146       C  0.91691391  0.26087810  0.77539038     0.35800
H1147       H  0.96907484  0.23945495  0.86576294     0.16170
O1148       O  0.93688267  0.30768811  0.89457982    -0.60760
H1149       H  0.86064497  0.29837841  0.77483886     0.16180
O1150       O  0.91787847  0.25752045  0.73250024    -0.60850
H1151       H  0.93739712  0.27966422  0.72299084     0.43180
H1152       H  0.94642911  0.28645423  0.91516473     0.43130
C1153       C  0.02688354  0.23648475  0.80164432    -0.05930
C1154       C  0.04527461  0.26939548  0.77980740    -0.33360
C1155       C  0.07789551  0.29199382  0.79779435     0.35890
C1156       C  0.07787693  0.29639433  0.84168888    -0.06290
C1157       C  0.06042068  0.26300819  0.86489225    -0.33260
C1158       C  0.04055271  0.22970504  0.84345246     0.35800
H1159       H  0.03277492  0.27953476  0.74997098     0.16170
O1160       O  0.10538959  0.31457341  0.77343463    -0.60760
H1161       H  0.06166067  0.26277185  0.89884939     0.16180
O1162       O  0.02804365  0.19496553  0.86529122    -0.60850
H1163       H  0.04730266  0.17243441  0.85606481     0.43180
H1164       H  0.09099054  0.32149361  0.74673773     0.43130
C1165       C  0.70503564  0.17826748  0.03224785    -0.05930
C1166       C  0.66462535  0.16543052  0.02071454    -0.33360
C1167       C  0.64377739  0.13543175  0.04359016     0.35890
C1168       C  0.65197657  0.13160377  0.08680139    -0.06290
C1169       C  0.69030244  0.14802765  0.10173238    -0.33260
C1170       C  0.71881261  0.16746049  0.07334365     0.35800
H1171       H  0.65183517  0.17350619  0.99034990     0.16170
O1172       O  0.61152791  0.11420454  0.02467284    -0.60760
H1173       H  0.69875592  0.14462672  0.13445939     0.16180
O1174       O  0.75973058  0.17325638  0.08509361    -0.60850
H1175       H  0.75890195  0.18919382  0.11181807     0.43180
H1176       H  0.61794998  0.08412663  0.02851483     0.43130
C1177       C  0.72403775  0.16849908  0.95570156    -0.05930
C1178       C  0.72182152  0.12490551  0.96169507    -0.33360
C1179       C  0.68757466  0.10281457  0.94517418     0.35890
C1180       C  0.66451599  0.12032068  0.91184678    -0.06290
C1181       C  0.67620136  0.15953145  0.89658311    -0.33260
C1182       C  0.70217737  0.18526422  0.92061435     0.35800
H1183       H  0.73810314  0.11135622  0.98831344     0.16170
O1184       O  0.67177286  0.06929226  0.96705348    -0.60760
H1185       H  0.65845879  0.17334031  0.87107643     0.16180
O1186       O  0.69813076  0.22724848  0.91451494    -0.60850
H1187       H  0.70984718  0.23271255  0.88615876     0.43180
H1188       H  0.69598260  0.05242725  0.97684942     0.43130
C1189       C  0.77723265  0.24586747  0.03558227    -0.05930
C1190       C  0.82089406  0.25166770  0.03556500    -0.33360
C1191       C  0.84009628  0.28043310  0.06216001     0.35890
C1192       C  0.81785601  0.29729421  0.09644333    -0.06290
C1193       C  0.77467817  0.28829510  0.09944398    -0.33260
C1194       C  0.75392557  0.26503722  0.06800959     0.35800
H1195       H  0.84018846  0.23768649  0.01163558     0.16170
O1196       O  0.87792786  0.29757027  0.05030791    -0.60760
H1197       H  0.75617672  0.30362389  0.12326844     0.16180
O1198       O  0.71103643  0.26324293  0.06824215    -0.60850
H1199       H  0.70172580  0.28709083  0.05070972     0.43180
H1200       H  0.89632996  0.27423592  0.04118821     0.43130
C1201       C  0.77331589  0.24621634  0.95672817    -0.05930
C1202       C  0.81061960  0.23269194  0.93865689    -0.33360
C1203       C  0.83439119  0.26016286  0.91398699     0.35890
C1204       C  0.81661754  0.29832082  0.89881463    -0.06290
C1205       C  0.77373202  0.30464190  0.90828975    -0.33260
C1206       C  0.75500701  0.28306025  0.94153775     0.35800
H1207       H  0.82496939  0.20407910  0.94989343     0.16170
O1208       O  0.87594672  0.25154250  0.91178853    -0.60760
H1209       H  0.75767386  0.33202777  0.89644890     0.16180
O1210       O  0.71873945  0.29812742  0.95901117    -0.60850
H1211       H  0.72796915  0.31802323  0.98101855     0.43180
H1212       H  0.87822933  0.22517336  0.89549469     0.43130
C1213       C  0.14149028  0.64698388  0.07989417    -0.05930
C1214       C  0.15025637  0.68828605  0.09341380    -0.33360
C1215       C  0.17018830  0.71704989  0.06566469     0.35890
C1216       C  0.18947398  0.70204463  0.02837441    -0.06290
C1217       C  0.18344907  0.65973151  0.01849066    -0.33260
C1218       C  0.15287577  0.63686178  0.03852025     0.35800
H1219       H  0.14113883  0.69879599  0.12433662     0.16170
O1220       O  0.16955567  0.75908788  0.07432085    -0.60760
H1221       H  0.19704086  0.64621577  0.99057954     0.16180
O1222       O  0.13671563  0.60255370  0.01847878    -0.60850
H1223       H  0.10706990  0.60959188  0.01254187     0.43180
H1224       H  0.18122202  0.76225884  0.10301912     0.43130
C1225       C  0.17980160  0.71592710  0.95198437    -0.05930
C1226       C  0.13551206  0.71572285  0.95453041    -0.33360
C1227       C  0.11234766  0.68306814  0.93601177     0.35890
C1228       C  0.13278479  0.65436823  0.90950805    -0.06290
C1229       C  0.17371604  0.66266262  0.89735294    -0.33260
C1230       C  0.19850320  0.68874910  0.92185384     0.35800
H1231       H  0.12000920  0.73555279  0.97735712     0.16170
O1232       O  0.07098857  0.67778593  0.94630130    -0.60760
H1233       H  0.18912066  0.64127713  0.87582534     0.16180
O1234       O  0.23939641  0.67688471  0.92520615    -0.60850
H1235       H  0.25103607  0.67708052  0.89624383     0.43180
H1236       H  0.07107740  0.66434497  0.97433984     0.43130
C1237       C  0.26215288  0.77506419  0.02774651    -0.05930
C1238       C  0.26294352  0.75825665  0.06898731    -0.33360
C1239       C  0.28660655  0.77734266  0.10153135     0.35890
C1240       C  0.30868621  0.81476021  0.09373886    -0.06290
C1241       C  0.30674400  0.83183283  0.05408559    -0.33260
C1242       C  0.28974392  0.80970043  0.02124084     0.35800
H1243       H  0.24871985  0.72862101  0.07579138     0.16170
O1244       O  0.29062882  0.75755451  0.13947123    -0.60760
H1245       H  0.32728440  0.85776776  0.04630981     0.16180
O1246       O  0.30904673  0.81712475  0.98388299    -0.60850
H1247       H  0.33691422  0.80373360  0.98634161     0.43180
H1248       H  0.27022938  0.77163335  0.15825136     0.43130
C1249       C  0.24810315  0.77359973  0.94848163    -0.05930
C1250       C  0.23942980  0.81527982  0.93690327    -0.33360
C1251       C  0.26911333  0.83693575  0.91197158     0.35890
C1252       C  0.30134497  0.81387247  0.89154530    -0.06290
C1253       C  0.29742122  0.77037087  0.89109558    -0.33260
C1254       C  0.27979559  0.75223725  0.92646338     0.35800
H1255       H  0.21668647  0.83303637  0.95481839     0.16170
O1256       O  0.27116670  0.87961724  0.91477847    -0.60760
H1257       H  0.31939515  0.75192163  0.87288264     0.16180
O1258       O  0.30029026  0.71881490  0.94425126    -0.60850
H1259       H  0.31711413  0.73027584  0.96773496     0.43180
H1260       H  0.24322457  0.88979993  0.90582149     0.43130
C1261       C  0.15449205  0.56713710  0.66952879    -0.05930
C1262       C  0.14207201  0.53394372  0.69635616    -0.33360
C1263       C  0.17023212  0.50658808  0.71423154     0.35890
C1264       C  0.21276926  0.50940627  0.70438382    -0.06290
C1265       C  0.22722152  0.54482943  0.68300978    -0.33260
C1266       C  0.19858361  0.57496731  0.66786888     0.35800
H1267       H  0.10993338  0.52680635  0.70336546     0.15570
O1268       O  0.15526884  0.47466308  0.73882956    -0.60760
H1269       H  0.26049397  0.54899647  0.67791737     0.16180
O1270       O  0.21466435  0.61229883  0.65482896    -0.60850
H1271       H  0.21073996  0.63159401  0.67890191     0.43180
H1272       H  0.15531460  0.48580443  0.76789232     0.43130
C1273       C  0.15791131  0.38666248  0.64918764    -0.05930
C1274       C  0.17740707  0.41928563  0.62755199    -0.33360
C1275       C  0.21112799  0.44065365  0.64530551     0.35890
C1276       C  0.22156839  0.43438734  0.68809903    -0.06290
C1277       C  0.20348314  0.39983194  0.70881239    -0.33260
C1278       C  0.17349415  0.37498642  0.68867991     0.35800
H1279       H  0.16517903  0.42979689  0.59766352     0.16170
O1280       O  0.22940287  0.47216655  0.62262149    -0.60760
H1281       H  0.20877830  0.39392286  0.74169670     0.16180
O1282       O  0.15671418  0.34165905  0.70954588    -0.60850
H1283       H  0.17166993  0.31686143  0.69835499     0.43180
H1284       H  0.25680390  0.46076448  0.61344071     0.43130
C1285       C  0.30878534  0.37320789  0.82699016    -0.05930
C1286       C  0.27576529  0.40086847  0.83831397    -0.33360
C1287       C  0.25781239  0.42826109  0.81008003     0.35890
C1288       C  0.27254421  0.42971101  0.76893121    -0.06290
C1289       C  0.29783799  0.39672303  0.75444688    -0.33260
C1290       C  0.31309128  0.36613305  0.78311332     0.35800
H1291       H  0.26436827  0.40446638  0.86982894     0.16170
O1292       O  0.22757880  0.45572326  0.82374102    -0.60760
H1293       H  0.30514381  0.39448887  0.72130453     0.16180
O1294       O  0.32424159  0.32724112  0.76853082    -0.60850
H1295       H  0.33605228  0.33072204  0.73990652     0.43180
H1296       H  0.24164603  0.47435475  0.84427814     0.43130
C1297       C  0.28507522  0.50643546  0.76718305    -0.05930
C1298       C  0.32725335  0.50099857  0.77917313    -0.33360
C1299       C  0.34550599  0.52565747  0.81035436     0.35890
C1300       C  0.32399278  0.56061685  0.82612961    -0.06290
C1301       C  0.28289319  0.56810858  0.81292348    -0.33260
C1302       C  0.26260673  0.54035825  0.78545360     0.35800
H1303       H  0.34503193  0.47466432  0.76724590     0.16170
O1304       O  0.38415907  0.51503256  0.82603240    -0.60760
H1305       H  0.26508835  0.59324700  0.82720617     0.16180
O1306       O  0.22022127  0.54466234  0.78066129    -0.60850
H1307       H  0.20764906  0.53596406  0.80776439     0.43180
H1308       H  0.40444592  0.52096715  0.80322065     0.43130
C1309       C  0.44826560  0.20442763  0.69896230    -0.05930
C1310       C  0.44909396  0.19888388  0.65513625    -0.33360
C1311       C  0.42811868  0.16574771  0.63671612     0.35890
C1312       C  0.39383174  0.14806303  0.65728377    -0.06290
C1313       C  0.38919679  0.15572147  0.70034752    -0.33260
C1314       C  0.41861213  0.18045197  0.72189776     0.35800
H1315       H  0.46976639  0.21643407  0.63525267     0.16170
O1316       O  0.44119234  0.15103593  0.59831447    -0.60760
H1317       H  0.36655457  0.13779071  0.71817995     0.16180
O1318       O  0.42253929  0.17463078  0.76424869    -0.60850
H1319       H  0.39432187  0.17956577  0.77642046     0.43180
H1320       H  0.46499315  0.13208741  0.60456756     0.43130
C1321       C  0.52689969  0.20676322  0.70443300    -0.05930
C1322       C  0.54210757  0.21665530  0.66423180    -0.33360
C1323       C  0.56393813  0.18618204  0.64116195     0.35890
C1324       C  0.58234103  0.15221395  0.66250873    -0.06290
C1325       C  0.57511834  0.14862505  0.70603835    -0.33260
C1326       C  0.54323668  0.17160897  0.72512037     0.35800
H1327       H  0.53038072  0.24408486  0.64814381     0.16170
O1328       O  0.56342328  0.18729506  0.59796408    -0.60760
H1329       H  0.58871022  0.12318307  0.72369711     0.16180
O1330       O  0.52370437  0.15574652  0.76022131    -0.60850
H1331       H  0.54611727  0.14734855  0.78011942     0.43180
H1332       H  0.57138860  0.21608921  0.58967435     0.43130
C1333       C  0.52365692  0.27527526  0.76553152    -0.05930
C1334       C  0.54703787  0.25013015  0.79315042    -0.33360
C1335       C  0.57608833  0.26741137  0.82094365     0.35890
C1336       C  0.57781597  0.31101966  0.82611894    -0.06290
C1337       C  0.55384637  0.33591731  0.79913917    -0.33260
C1338       C  0.53030197  0.31862993  0.76662822     0.35800
H1339       H  0.54079998  0.21745075  0.79594963     0.16170
O1340       O  0.59959592  0.24125808  0.84558468    -0.60760
H1341       H  0.55004296  0.36855271  0.80491441     0.16180
O1342       O  0.51287918  0.34433893  0.73686245    -0.60850
H1343       H  0.49887478  0.36750191  0.75218555     0.43180
H1344       H  0.62783297  0.24111472  0.83260029     0.43130
C1345       C  0.39071565  0.30922965  0.82497039    -0.05930
C1346       C  0.40537124  0.33215970  0.79021093    -0.33360
C1347       C  0.42805768  0.31201556  0.75812175     0.35890
C1348       C  0.44586469  0.27243091  0.76583878    -0.06290
C1349       C  0.43416910  0.25134326  0.80215438    -0.33260
C1350       C  0.40278469  0.26677838  0.82804866     0.35800
H1351       H  0.39781252  0.36499339  0.78706911     0.16170
O1352       O  0.43419455  0.33193367  0.72054645    -0.60760
H1353       H  0.45027850  0.22303356  0.81139038     0.16180
O1354       O  0.38504906  0.24042072  0.85697214    -0.60850
H1355       H  0.40854080  0.22900813  0.87386818     0.43180
H1356       H  0.41386246  0.31897809  0.70095326     0.43130
C1357       C  0.67182701  0.43629490  0.23808974    -0.05930
C1358       C  0.69926698  0.41363898  0.21218522    -0.33360
C1359       C  0.68481508  0.38200784  0.18603862     0.35890
C1360       C  0.64152987  0.37709935  0.17943669    -0.06290
C1361       C  0.61359235  0.39845385  0.20586826    -0.33260
C1362       C  0.62868817  0.42611374  0.23678259     0.35800
H1363       H  0.73191230  0.42181026  0.21001177     0.16170
O1364       O  0.71311188  0.36020118  0.16220340    -0.60760
H1365       H  0.58014497  0.39445443  0.20183999     0.16180
O1366       O  0.60132622  0.44295446  0.26544535    -0.60850
H1367       H  0.57766715  0.45475809  0.24905339     0.43180
H1368       H  0.72155259  0.33631328  0.18013694     0.43130
C1369       C  0.67357419  0.51418102  0.23881029    -0.05930
C1370       C  0.63195557  0.52860560  0.24227687    -0.33360
C1371       C  0.61408253  0.55391511  0.21068585     0.35890
C1372       C  0.63976421  0.57139643  0.17908181    -0.06290
C1373       C  0.68309057  0.56302868  0.18124810    -0.33260
C1374       C  0.69863713  0.53102827  0.20665251     0.35800
H1375       H  0.61212990  0.51731024  0.26724489     0.16170
O1376       O  0.57143542  0.55872405  0.20955013    -0.60760
H1377       H  0.70374352  0.57559078  0.15763722     0.16180
O1378       O  0.73793429  0.51512087  0.19893647    -0.60850
H1379       H  0.75777434  0.53865589  0.20268198     0.43180
H1380       H  0.56116477  0.53598905  0.19107312     0.43130
C1381       C  0.74307914  0.50961949  0.30972503    -0.05930
C1382       C  0.74688605  0.55055998  0.29287085    -0.33360
C1383       C  0.77755576  0.57880308  0.30700257     0.35890
C1384       C  0.80369088  0.56788067  0.34052401    -0.06290
C1385       C  0.79647094  0.52981789  0.36123680    -0.33260
C1386       C  0.76632025  0.50155506  0.34691927     0.35800
H1387       H  0.72730742  0.56216313  0.26860283     0.16170
O1388       O  0.78203870  0.61666360  0.28741015    -0.60760
H1389       H  0.81510537  0.52171031  0.38851368     0.16180
O1390       O  0.75956661  0.46605327  0.37006382    -0.60850
H1391       H  0.78635568  0.45029989  0.36924127     0.43180
H1392       H  0.76186804  0.63553705  0.30164109     0.43130
C1393       C  0.74521667  0.43206954  0.29156923    -0.05930
C1394       C  0.73112892  0.39798377  0.31579654    -0.33360
C1395       C  0.75954803  0.36550784  0.32747514     0.35890
C1396       C  0.80266735  0.36985381  0.31754011    -0.06290
C1397       C  0.81023241  0.39447859  0.28142313    -0.33260
C1398       C  0.78429521  0.42818775  0.27183205     0.35800
H1399       H  0.69889833  0.39716175  0.32634847     0.16170
O1400       O  0.74448731  0.32749768  0.34077773    -0.60760
H1401       H  0.83979523  0.39273947  0.26501337     0.16180
O1402       O  0.79777068  0.45770699  0.24365342    -0.60850
H1403       H  0.81651402  0.47641324  0.25986907     0.43180
H1404       H  0.71709567  0.33235546  0.35469823     0.43130
C1405       C  0.57047151  0.64145470  0.16618469    -0.05930
C1406       C  0.58654393  0.64924104  0.20697990    -0.33360
C1407       C  0.56034324  0.66656015  0.23850364     0.35890
C1408       C  0.52103944  0.68327863  0.22707305    -0.06290
C1409       C  0.51100917  0.68511172  0.18465634    -0.33260
C1410       C  0.53027358  0.65824285  0.15720519     0.35800
H1411       H  0.61781460  0.63964629  0.21552383     0.16170
O1412       O  0.57225235  0.66485343  0.27982966    -0.60760
H1413       H  0.48196672  0.69938878  0.17447731     0.16180
O1414       O  0.50586821  0.64425988  0.12496439    -0.60850
H1415       H  0.49424248  0.61728335  0.13498224     0.43180
H1416       H  0.59640615  0.68415569  0.28229472     0.43130
C1417       C  0.39779858  0.62716127  0.17763466    -0.05930
C1418       C  0.42664638  0.60452889  0.20181469    -0.33360
C1419       C  0.44891619  0.62360887  0.23441936     0.35890
C1420       C  0.44552360  0.66705825  0.24108747    -0.06290
C1421       C  0.41359881  0.68887482  0.21957914    -0.33260
C1422       C  0.38968743  0.66910087  0.18830144     0.35800
H1423       H  0.43480216  0.57290283  0.19317634     0.16170
O1424       O  0.47907223  0.60095035  0.25498244    -0.60760
H1425       H  0.41044770  0.72229838  0.22264178     0.16180
O1426       O  0.36030924  0.69167840  0.16646153    -0.60850
H1427       H  0.37627441  0.71285700  0.15033861     0.43180
H1428       H  0.46693515  0.59481517  0.28297651     0.43130
C1429       C  0.44429944  0.74259865  0.29438739    -0.05930
C1430       C  0.41525902  0.72836260  0.32387508    -0.33360
C1431       C  0.38446366  0.75562145  0.33952415     0.35890
C1432       C  0.38569677  0.79886064  0.32879348    -0.06290
C1433       C  0.40866121  0.80869239  0.29200317    -0.33260
C1434       C  0.43842236  0.78165984  0.27579988     0.35800
H1435       H  0.41688189  0.69648498  0.33518861     0.16170
O1436       O  0.35177383  0.73814043  0.36075692    -0.60760
H1437       H  0.40684895  0.83873092  0.27690927     0.16180
O1438       O  0.46283841  0.79418699  0.24256333    -0.60850
H1439       H  0.48162135  0.81613311  0.25390587     0.43180
H1440       H  0.32909279  0.73514136  0.33970564     0.43130
C1441       C  0.52116830  0.74103242  0.30368931    -0.05930
C1442       C  0.55037835  0.76237180  0.27847850    -0.33360
C1443       C  0.57840529  0.79101671  0.29641108     0.35890
C1444       C  0.57582156  0.80053618  0.33961798    -0.06290
C1445       C  0.54621941  0.77974203  0.36437023    -0.33260
C1446       C  0.52131946  0.74831882  0.34740147     0.35800
H1447       H  0.54976773  0.75913718  0.24465796     0.16170
O1448       O  0.60531303  0.81257284  0.27080139    -0.60760
H1449       H  0.54274573  0.78782255  0.39726553     0.16180
O1450       O  0.49438405  0.72729851  0.37341959    -0.60850
H1451       H  0.50791974  0.69985871  0.37850432     0.43180
H1452       H  0.63233387  0.79739905  0.27275760     0.43130
C1453       C  0.16283557  0.65603686  0.38981388    -0.05930
C1454       C  0.20361996  0.63930130  0.39546311    -0.33360
C1455       C  0.22910060  0.65215640  0.42921272     0.35890
C1456       C  0.21438644  0.68297508  0.45683218    -0.06290
C1457       C  0.17829148  0.70493486  0.44586620    -0.33260
C1458       C  0.15688612  0.69510013  0.40896424     0.35800
H1459       H  0.21798982  0.61919406  0.37298407     0.16170
O1460       O  0.26707116  0.63325116  0.43585614    -0.60760
H1461       H  0.16693461  0.73018428  0.46550906     0.16180
O1462       O  0.12816713  0.72225031  0.39305414    -0.60850
H1463       H  0.10831826  0.72759439  0.41602448     0.43180
H1464       H  0.28785193  0.65169634  0.42203623     0.43130
C1465       C  0.21472746  0.67218737  0.53505807    -0.05930
C1466       C  0.21264332  0.62818711  0.53668593    -0.33360
C1467       C  0.18552283  0.60802595  0.56493330     0.35890
C1468       C  0.16290843  0.63177466  0.59439743    -0.06290
C1469       C  0.16954196  0.67483928  0.59628611    -0.33260
C1470       C  0.19161985  0.69543353  0.56475708     0.35800
H1471       H  0.22915153  0.60963013  0.51351856     0.16170
O1472       O  0.17927666  0.56576380  0.56176103    -0.60760
H1473       H  0.15135368  0.69318155  0.61800660     0.16180
O1474       O  0.18334769  0.73697686  0.55844165    -0.60850
H1475       H  0.18670666  0.75097137  0.58608721     0.43180
H1476       H  0.15612399  0.56245834  0.54127247     0.43130
C1477       C  0.27719908  0.74155863  0.54103841    -0.05930
C1478       C  0.25797934  0.77956787  0.54943014    -0.33360
C1479       C  0.27449405  0.80735792  0.57833993     0.35890
C1480       C  0.31563799  0.80165311  0.59425821    -0.06290
C1481       C  0.33351585  0.76153036  0.58792505    -0.33260
C1482       C  0.31373456  0.73115764  0.56298343     0.35800
H1483       H  0.23037377  0.78892247  0.53208814     0.16170
O1484       O  0.24963008  0.83999688  0.59034230    -0.60760
H1485       H  0.36362430  0.75319058  0.59937929     0.16180
O1486       O  0.33306528  0.69346047  0.55626369    -0.60850
H1487       H  0.31740329  0.67322392  0.57383440     0.43180
H1488       H  0.24342842  0.85577868  0.56420614     0.43130
C1489       C  0.32767942  0.79930070  0.41125094    -0.05930
C1490       C  0.28404073  0.79594654  0.41008013    -0.33360
C1491       C  0.26307380  0.77063441  0.43864141     0.35890
C1492       C  0.28572225  0.74243832  0.46411127    -0.06290
C1493       C  0.32983589  0.74349965  0.46251527    -0.33260
C1494       C  0.35070968  0.77359042  0.43850563     0.35800
H1495       H  0.26584202  0.81701260  0.39064555     0.16170
O1496       O  0.22138210  0.77809097  0.44505927    -0.60760
H1497       H  0.34817499  0.72360996  0.48289544     0.16180
O1498       O  0.39314480  0.77882177  0.44289219    -0.60850
H1499       H  0.40610792  0.75427439  0.42898673     0.43180
H1500       H  0.21970891  0.80554093  0.45946363     0.43130
C1501       C  0.65847049  0.14538951  0.59283975    -0.05930
C1502       C  0.65393627  0.18851888  0.60168487    -0.33360
C1503       C  0.66849145  0.21908136  0.57329295     0.35890
C1504       C  0.69301401  0.20685853  0.53882197    -0.06290
C1505       C  0.70710663  0.16603612  0.53671161    -0.33260
C1506       C  0.69009456  0.13537842  0.56224052     0.35800
H1507       H  0.63842520  0.19930849  0.62946851     0.16170
O1508       O  0.65619495  0.25988481  0.57783566    -0.60760
H1509       H  0.72869868  0.15685914  0.51203055     0.16180
O1510       O  0.70566183  0.09597723  0.55627545    -0.60850
H1511       H  0.69648278  0.08730137  0.52777589     0.43180
H1512       H  0.67539404  0.27180370  0.59916255     0.43130
C1513       C  0.67410877  0.21407766  0.46331127    -0.05930
C1514       C  0.63144792  0.20600075  0.47156918    -0.33360
C1515       C  0.60953595  0.17439154  0.45033571     0.35890
C1516       C  0.62807312  0.15414038  0.41581015    -0.06290
C1517       C  0.66866979  0.16545191  0.40399585    -0.33260
C1518       C  0.69245667  0.19298565  0.42859587     0.35800
H1519       H  0.61672847  0.22007759  0.49881716     0.16170
O1520       O  0.57276653  0.15952600  0.46706565    -0.60760
H1521       H  0.68393008  0.14881866  0.37854347     0.16180
O1522       O  0.73436995  0.19457383  0.42076446    -0.60850
H1523       H  0.74584830  0.16774389  0.43139739     0.43180
H1524       H  0.55456042  0.18423031  0.47188164     0.43130
C1525       C  0.74827839  0.27767142  0.45989422    -0.05930
C1526       C  0.74222376  0.31793103  0.44342960    -0.33360
C1527       C  0.77403954  0.33742967  0.41985371     0.35890
C1528       C  0.80680366  0.31307415  0.40287373    -0.06290
C1529       C  0.81043511  0.27135643  0.41651619    -0.33260
C1530       C  0.78488676  0.25600985  0.44839458     0.35800
H1531       H  0.71491958  0.33582890  0.45220322     0.16170
O1532       O  0.77446546  0.38019593  0.41558306    -0.60760
H1533       H  0.83606563  0.25182806  0.40618501     0.16180
O1534       O  0.79667275  0.22024133  0.46913996    -0.60850
H1535       H  0.81894073  0.22903625  0.48896718     0.43180
H1536       H  0.74521396  0.38914956  0.41011605     0.43130
C1537       C  0.74538260  0.28266648  0.53776376    -0.05930
C1538       C  0.77123125  0.25835574  0.56390971    -0.33360
C1539       C  0.80044438  0.27754464  0.59075040     0.35890
C1540       C  0.80734601  0.32102376  0.58798538    -0.06290
C1541       C  0.78101148  0.34462432  0.56221256    -0.33260
C1542       C  0.74708102  0.32637613  0.54206999     0.35800
H1543       H  0.77090185  0.22462823  0.56185601     0.16170
O1544       O  0.82374393  0.25352238  0.61772913    -0.60760
H1545       H  0.78816545  0.37666499  0.55488489     0.16180
O1546       O  0.71777170  0.35173333  0.52376087    -0.60850
H1547       H  0.69302627  0.35036348  0.54253999     0.43180
H1548       H  0.83880230  0.23318024  0.59976906     0.43130
C1549       C  0.24022373  0.92777808  0.19804377    -0.05930
C1550       C  0.24259139  0.92206180  0.15425096    -0.33360
C1551       C  0.27519377  0.89852382  0.13635289     0.35890
C1552       C  0.30172321  0.87383610  0.16195237    -0.06290
C1553       C  0.29194319  0.87156962  0.20520455    -0.33260
C1554       C  0.26346046  0.89999976  0.22373300     0.35800
H1555       H  0.22519691  0.94299565  0.13393715     0.16170
O1556       O  0.28477960  0.90572578  0.09509064    -0.60760
H1557       H  0.31116518  0.85244185  0.22563511     0.16180
O1558       O  0.26437196  0.90557328  0.26647800    -0.60850
H1559       H  0.25469177  0.87878177  0.27872857     0.43180
H1560       H  0.30531901  0.92895792  0.09537953     0.43130
C1561       C  0.17987283  0.02016188  0.25518133    -0.05930
C1562       C  0.20589808  0.04823437  0.27725263    -0.33360
C1563       C  0.18887223  0.07648799  0.30673608     0.35890
C1564       C  0.14589517  0.07431007  0.31764811    -0.06290
C1565       C  0.11949085  0.05132879  0.29076780    -0.33260
C1566       C  0.13604449  0.02601858  0.25856197     0.35800
H1567       H  0.23961840  0.04516425  0.27519764     0.16170
O1568       O  0.21537657  0.10217892  0.32853868    -0.60760
H1569       H  0.08633760  0.04923686  0.29727983     0.16180
O1570       O  0.10937817  0.00199687  0.23484877    -0.60850
H1571       H  0.09683784  0.98142648  0.25445729     0.43180
H1572       H  0.21123776  0.13029057  0.31613162     0.43130
C1573       C  0.25319830  0.00610666  0.19326085    -0.05930
C1574       C  0.23962348  0.04774269  0.18555111    -0.33360
C1575       C  0.26829080  0.07797637  0.17002146     0.35890
C1576       C  0.30689245  0.06446834  0.15278033    -0.06290
C1577       C  0.31458050  0.02191473  0.15123273    -0.33260
C1578       C  0.29395503  0.99620391  0.17908683     0.35800
H1579       H  0.20832537  0.05792665  0.19303679     0.16170
O1580       O  0.25917553  0.11974412  0.17341848    -0.60760
H1581       H  0.34344712  0.01055577  0.13728869     0.16180
O1582       O  0.31634779  0.96423352  0.19654462    -0.60850
H1583       H  0.33083093  0.95057438  0.17277560     0.43180
H1584       H  0.23414077  0.12439962  0.15558011     0.43130
C1585       C  0.17715023  0.94200523  0.26923318    -0.05930
C1586       C  0.17016295  0.90007069  0.25608060    -0.33360
C1587       C  0.15572810  0.86980382  0.28538229     0.35890
C1588       C  0.13876636  0.88352329  0.32401827    -0.06290
C1589       C  0.13670387  0.92609670  0.33143339    -0.33260
C1590       C  0.16357344  0.95205299  0.31018953     0.35800
H1591       H  0.17756610  0.88979309  0.22469753     0.16170
O1592       O  0.15925356  0.82795880  0.27665608    -0.60760
H1593       H  0.12255144  0.93769531  0.36016428     0.16180
O1594       O  0.18024746  0.98481811  0.33196021    -0.60850
H1595       H  0.15619542  0.99823481  0.34615364     0.43180
H1596       H  0.14226035  0.82315029  0.25104225     0.43130
C1597       C  0.06951337  0.29345340  0.15354565    -0.05930
C1598       C  0.02675219  0.29525004  0.14638771    -0.33360
C1599       C  0.00221426  0.28098012  0.17901546     0.35890
C1600       C  0.01182180  0.24333835  0.20000536    -0.06290
C1601       C  0.05350485  0.22905148  0.19317985    -0.33260
C1602       C  0.08376779  0.25733189  0.17568364     0.35800
H1603       H  0.01416932  0.31971329  0.12646541     0.16170
O1604       O  0.97446736  0.30855208  0.19587262    -0.60760
H1605       H  0.06349212  0.19850042  0.20342121     0.16180
O1606       O  0.12565870  0.25032373  0.18179064    -0.60850
H1607       H  0.13210893  0.22441717  0.16593120     0.43180
H1608       H  0.98680703  0.31755946  0.22303558     0.43130
C1609       C  0.93226805  0.17332404  0.26524961    -0.05930
C1610       C  0.90505947  0.19593962  0.29147817    -0.33360
C1611       C  0.87136160  0.17660742  0.31071350     0.35890
C1612       C  0.87434258  0.13338629  0.31677950    -0.06290
C1613       C  0.89679833  0.10987424  0.28669746    -0.33260
C1614       C  0.92352712  0.13051525  0.25825300     0.35800
H1615       H  0.91268497  0.22675418  0.30232008     0.16170
O1616       O  0.84416142  0.20020225  0.33428100    -0.60760
H1617       H  0.89799209  0.07612347  0.28870941     0.16180
O1618       O  0.94828557  0.10734252  0.23184332    -0.60850
H1619       H  0.93775815  0.11357377  0.20323186     0.43180
H1620       H  0.81695826  0.19832915  0.31941308     0.43130
C1621       C  0.01094339  0.17330352  0.28025025    -0.05930
C1622       C  0.05202266  0.18956839  0.28146806    -0.33360
C1623       C  0.08473112  0.16806994  0.30224702     0.35890
C1624       C  0.07620106  0.13008816  0.32329224    -0.06290
C1625       C  0.03608225  0.11396509  0.32149458    -0.33260
C1626       C  0.00344548  0.13902858  0.30787543     0.35800
H1627       H  0.05839958  0.22051893  0.27000735     0.16170
O1628       O  0.12430974  0.18483612  0.30227114    -0.60760
H1629       H  0.02855876  0.08743170  0.34137801     0.16180
O1630       O  0.96784399  0.13807538  0.33212700    -0.60850
H1631       H  0.96126435  0.10839255  0.33832633     0.43180
H1632       H  0.13190070  0.18953787  0.33201497     0.43130
C1633       C  0.87680044  0.29494852  0.16879920    -0.05930
C1634       C  0.89716068  0.26342445  0.14530921    -0.33360
C1635       C  0.92251368  0.23310544  0.16433622     0.35890
C1636       C  0.93268833  0.23710027  0.20703719    -0.06290
C1637       C  0.91038297  0.26693272  0.23092979    -0.33260
C1638       C  0.88027066  0.29289546  0.21273998     0.35800
H1639       H  0.89818183  0.26423873  0.11202907     0.16170
O1640       O  0.94420691  0.20558737  0.13940839    -0.60760
H1641       H  0.92125131  0.27582884  0.26170510     0.16180
O1642       O  0.86031771  0.32165241  0.23750562    -0.60850
H1643       H  0.83272096  0.30901349  0.24395096     0.43180
H1644       H  0.93026327  0.17826103  0.14367336     0.43130
C1645       C  0.17733587  0.24430463  0.97036145    -0.05930
C1646       C  0.16837434  0.23336595  0.92831839    -0.33360
C1647       C  0.15165422  0.26385908  0.90024852     0.35890
C1648       C  0.13489285  0.30197188  0.91658918    -0.06290
C1649       C  0.14033920  0.30928218  0.95958431    -0.33260
C1650       C  0.16866242  0.28574682  0.98204220     0.35800
H1651       H  0.17601338  0.20259578  0.91658397     0.16170
O1652       O  0.15475490  0.25746739  0.85771908    -0.60760
H1653       H  0.12916339  0.33794828  0.97386204     0.16180
O1654       O  0.18820364  0.30389187  0.01552264    -0.60850
H1655       H  0.21669007  0.31101339  0.00536873     0.43180
H1656       H  0.14158021  0.22997558  0.85206387     0.43130
C1657       C  0.30454428  0.13618570  0.09414353    -0.05930
C1658       C  0.27495775  0.10907143  0.07557516    -0.33360
C1659       C  0.24134680  0.12555918  0.05231771     0.35890
C1660       C  0.24370226  0.16718795  0.03764539    -0.06290
C1661       C  0.27520168  0.19265606  0.05396346    -0.33260
C1662       C  0.29771936  0.17936687  0.08877932     0.35800
H1663       H  0.27723828  0.07557108  0.07909774     0.16170
O1664       O  0.20779144  0.10056995  0.04308463    -0.60760
H1665       H  0.27914960  0.22436214  0.04261803     0.16180
O1666       O  0.31561387  0.20840656  0.11496795    -0.60850
H1667       H  0.29261090  0.21800634  0.13356657     0.43180
H1668       H  0.18557846  0.10914453  0.06309994     0.43130
C1669       C  0.17140104  0.22547890  0.04764889    -0.05930
C1670       C  0.19511471  0.24371164  0.08049190    -0.33360
C1671       C  0.17882023  0.27549203  0.10573779     0.35890
C1672       C  0.13848074  0.29055865  0.09797579    -0.06290
C1673       C  0.11209424  0.26761088  0.07119635    -0.33260
C1674       C  0.12777276  0.23364139  0.04803461     0.35800
H1675       H  0.22766404  0.23940745  0.08426597     0.16170
O1676       O  0.20358537  0.29403592  0.13577465    -0.60760
H1677       H  0.08014125  0.27777851  0.06603240     0.16180
O1678       O  0.10204976  0.21459840  0.01937154    -0.60850
H1679       H  0.09592262  0.18674440  0.03149796     0.43180
H1680       H  0.22742718  0.30687620  0.12053594     0.43130
C1681       C  0.30338612  0.13031841  0.91099334    -0.05930
C1682       C  0.29303533  0.17313462  0.90624426    -0.33360
C1683       C  0.26393252  0.19238933  0.93352370     0.35890
C1684       C  0.23828580  0.16752839  0.95960017    -0.06290
C1685       C  0.24182864  0.12403693  0.95526284    -0.33260
C1686       C  0.27763223  0.10615204  0.93729561     0.35800
H1687       H  0.31176281  0.19272104  0.88584866     0.16170
O1688       O  0.26338432  0.23511046  0.93662706    -0.60760
H1689       H  0.22088440  0.10386726  0.97211113     0.16180
O1690       O  0.29122551  0.06798174  0.95165575    -0.60850
H1691       H  0.26620239  0.04981381  0.95447119     0.43180
H1692       H  0.28447508  0.24198879  0.95841480     0.43130
C1693       C  0.52160956  0.21922519  0.30832962    -0.05930
C1694       C  0.54888935  0.19456364  0.28377989    -0.33360
C1695       C  0.57234537  0.16223301  0.30207895     0.35890
C1696       C  0.56775218  0.15336316  0.34514150    -0.06290
C1697       C  0.54272200  0.17971800  0.36970868    -0.33260
C1698       C  0.52166584  0.21357866  0.35216528     0.35800
H1699       H  0.54879542  0.19686701  0.24991341     0.16170
O1700       O  0.59803218  0.13819191  0.27733092    -0.60760
H1701       H  0.53649814  0.17216342  0.40198725     0.16180
O1702       O  0.49569183  0.23689110  0.37729744    -0.60850
H1703       H  0.51102994  0.26332362  0.38238683     0.43180
H1704       H  0.57914679  0.12301494  0.25787224     0.43130
C1705       C  0.39390863  0.32220962  0.17724909    -0.05930
C1706       C  0.38785998  0.28002868  0.18695498    -0.33360
C1707       C  0.41269356  0.26021531  0.21699289     0.35890
C1708       C  0.44397170  0.28321266  0.23838633    -0.06290
C1709       C  0.44644305  0.32665381  0.23169813    -0.33260
C1710       C  0.42263064  0.34593612  0.20040579     0.35800
H1711       H  0.36618856  0.26149581  0.16854994     0.16170
O1712       O  0.41085305  0.21754273  0.21930642    -0.60760
H1713       H  0.47054538  0.34472421  0.24731928     0.16180
O1714       O  0.42936948  0.38718861  0.19093820    -0.60850
H1715       H  0.45207827  0.38707938  0.16966126     0.43180
H1716       H  0.38328397  0.21116789  0.23217804     0.43130
C1717       C  0.44566563  0.21121961  0.29921424    -0.05930
C1718       C  0.44847212  0.17032395  0.28529854    -0.33360
C1719       C  0.42389670  0.13913871  0.30199070     0.35890
C1720       C  0.39349680  0.14788644  0.33409065    -0.06290
C1721       C  0.38599452  0.19097961  0.34213000    -0.33260
C1722       C  0.41278656  0.22232285  0.32618219     0.35800
H1723       H  0.47229038  0.16167849  0.26256051     0.16170
O1724       O  0.43248048  0.10000448  0.28707478    -0.60760
H1725       H  0.36030919  0.20142300  0.36102532     0.16180
O1726       O  0.40772464  0.26301027  0.33862159    -0.60850
H1727       H  0.38844426  0.27546771  0.31765500     0.43180
H1728       H  0.42146787  0.09957447  0.25799081     0.43130
C1729       C  0.57801136  0.30178802  0.16934041    -0.05930
C1730       C  0.54523053  0.27447723  0.15743227    -0.33360
C1731       C  0.51744511  0.25791640  0.18628641     0.35890
C1732       C  0.52009254  0.26961182  0.22855839    -0.06290
C1733       C  0.55625760  0.29019820  0.24240839    -0.33260
C1734       C  0.58684521  0.30315184  0.21325465     0.35800
H1735       H  0.53896114  0.26618781  0.12528516     0.16170
O1736       O  0.48710742  0.23065260  0.17269681    -0.60760
H1737       H  0.56101807  0.29573484  0.27562372     0.16180
O1738       O  0.62573368  0.31279743  0.22839968    -0.60850
H1739       H  0.64338291  0.28803609  0.22215851     0.43180
H1740       H  0.47003315  0.24624008  0.15186995     0.43130
C1741       C  0.21540204  0.43774416  0.29947057    -0.05930
C1742       C  0.21558081  0.43021243  0.34299507    -0.33360
C1743       C  0.18661368  0.40331014  0.36140081     0.35890
C1744       C  0.16244537  0.37660486  0.33615697    -0.06290
C1745       C  0.16703251  0.37919450  0.29221112    -0.33260
C1746       C  0.19088285  0.41126434  0.27385859     0.35800
H1747       H  0.23582076  0.44727557  0.36364956     0.16170
O1748       O  0.18107274  0.40430887  0.40414449    -0.60760
H1749       H  0.14670684  0.36076189  0.27220521     0.16180
O1750       O  0.18555709  0.41975555  0.23197368    -0.60850
H1751       H  0.19386346  0.39391950  0.21684368     0.43180
H1752       H  0.15953734  0.42613028  0.40910364     0.43130
C1753       C  0.33313970  0.56161516  0.17652220    -0.05930
C1754       C  0.35406809  0.53233428  0.20155944    -0.33360
C1755       C  0.33290952  0.51084029  0.23334141     0.35890
C1756       C  0.28900153  0.51474591  0.23746049    -0.06290
C1757       C  0.26900691  0.54650937  0.21431617    -0.33260
C1758       C  0.29097895  0.57066091  0.18508193     0.35800
H1759       H  0.38607504  0.52374256  0.19468424     0.16170
O1760       O  0.35446509  0.48165125  0.25629595    -0.60760
H1761       H  0.23579902  0.55007324  0.21415810     0.16180
O1762       O  0.27034081  0.60119595  0.16287906    -0.60850
H1763       H  0.24803798  0.58667791  0.14688538     0.43180
H1764       H  0.35790771  0.49431079  0.28451365     0.43130
C1765       C  0.16135462  0.57861273  0.33157278    -0.05930
C1766       C  0.18719159  0.55434304  0.35776040    -0.33360
C1767       C  0.21875967  0.52946827  0.34052663     0.35890
C1768       C  0.21573611  0.51700015  0.29830011    -0.06290
C1769       C  0.18630487  0.53739401  0.27271456    -0.33260
C1770       C  0.16347874  0.57162867  0.28787108     0.35800
H1771       H  0.18460055  0.55687815  0.39160795     0.16170
O1772       O  0.25139584  0.51687716  0.36539186    -0.60760
H1773       H  0.17991223  0.52605238  0.24131613     0.16180
O1774       O  0.13875659  0.59435581  0.26095298    -0.60850
H1775       H  0.11684535  0.57495478  0.25079152     0.43180
H1776       H  0.27506996  0.53536485  0.35764620     0.43130
C1777       C  0.27451981  0.43919421  0.22765328    -0.05930
C1778       C  0.29979105  0.40683737  0.24284367    -0.33360
C1779       C  0.31817609  0.37783363  0.21504640     0.35890
C1780       C  0.31404228  0.38306504  0.17062299    -0.06290
C1781       C  0.28290031  0.41219201  0.15772972    -0.33260
C1782       C  0.26386766  0.43976452  0.18522926     0.35800
H1783       H  0.30634377  0.40480757  0.27616773     0.16170
O1784       O  0.33758351  0.34414360  0.23263300    -0.60760
H1785       H  0.27371926  0.41649546  0.12553662     0.16180
O1786       O  0.23532981  0.46826087  0.17011036    -0.60850
H1787       H  0.25120732  0.48688279  0.15096198     0.43180
H1788       H  0.31583491  0.32209127  0.23392234     0.43130
C1789       C  0.15404384  0.31790359  0.58765389    -0.05930
C1790       C  0.18043743  0.34139883  0.56165461    -0.33360
C1791       C  0.21128242  0.32209094  0.53727204     0.35890
C1792       C  0.21409756  0.27823453  0.53610812    -0.06290
C1793       C  0.18881905  0.25492048  0.56361137    -0.33260
C1794       C  0.16017396  0.27446350  0.59029215     0.35800
H1795       H  0.17514095  0.37435126  0.55726931     0.16170
O1796       O  0.23664479  0.34611327  0.51224307    -0.60760
H1797       H  0.18818507  0.22146323  0.56221392     0.16180
O1798       O  0.13570914  0.25031689  0.61603819    -0.60850
H1799       H  0.14876443  0.25244469  0.64420879     0.43180
H1800       H  0.21774227  0.36010344  0.49188675     0.43130
C1801       C  0.32241218  0.15113662  0.40736024    -0.05930
C1802       C  0.27850369  0.15377382  0.40727077    -0.33360
C1803       C  0.25729373  0.17898432  0.43621182     0.35890
C1804       C  0.28009347  0.20555938  0.46304496    -0.06290
C1805       C  0.32408095  0.20618572  0.45963791    -0.33260
C1806       C  0.34518082  0.17741500  0.43428834     0.35800
H1807       H  0.26045938  0.13266328  0.38793536     0.16170
O1808       O  0.21474537  0.17484312  0.44012788    -0.60760
H1809       H  0.34255354  0.22657848  0.47928095     0.16180
O1810       O  0.38794439  0.17421336  0.43707278    -0.60850
H1811       H  0.39313552  0.15337001  0.45952238     0.43180
H1812       H  0.20994007  0.14615121  0.45083651     0.43130
C1813       C  0.27359791  0.20748963  0.54133821    -0.05930
C1814       C  0.31232630  0.21914118  0.55726809    -0.33360
C1815       C  0.33635361  0.19033970  0.57980525     0.35890
C1816       C  0.31820455  0.15239885  0.59439737    -0.06290
C1817       C  0.27494756  0.14717998  0.58678066    -0.33260
C1818       C  0.25444630  0.17122730  0.55669672     0.35800
H1819       H  0.32717250  0.24731471  0.54569335     0.16170
O1820       O  0.37830593  0.19711799  0.57980945    -0.60760
H1821       H  0.25807678  0.12081223  0.59905942     0.16180
O1822       O  0.21745435  0.15704205  0.53997861    -0.60850
H1823       H  0.22480710  0.13148970  0.52392186     0.43180
H1824       H  0.38249527  0.22390055  0.59500539     0.43130
C1825       C  0.21124823  0.26755655  0.45910426    -0.05930
C1826       C  0.17144476  0.25101241  0.45507448    -0.33360
C1827       C  0.14477846  0.26493357  0.42409090     0.35890
C1828       C  0.15451416  0.30068779  0.39947095    -0.06290
C1829       C  0.19763011  0.31159092  0.39867012    -0.33260
C1830       C  0.22577370  0.29588275  0.42895889     0.35800
H1831       H  0.16086269  0.22668350  0.47628983     0.16170
O1832       O  0.11055232  0.24092171  0.41676346    -0.60760
H1833       H  0.21081076  0.33172609  0.37548258     0.16180
O1834       O  0.26678205  0.30877623  0.42947183    -0.60850
H1835       H  0.26600577  0.33958059  0.43281057     0.43180
H1836       H  0.11656413  0.22772997  0.38930138     0.43130
loop_ 
_geom_bond_atom_site_label_1 
_geom_bond_atom_site_label_2 
_geom_bond_distance 
_geom_bond_site_symmetry_2 
_ccdc_geom_bond_type 
C1            C2   1.355       .  D
C1         C1792   1.493       .  S
C1         C1825   1.472       .  S
C2         C1804   1.495       .  S
C2         C1813   1.475       .  S
C3            C4   1.365       .  D
C3         C1741   1.507       .  S
C3         C1768   1.491       .  S
C4         C1756   1.505       .  S
C4         C1777   1.482       .  S
C5            C6   1.358       .  D
C5         C1708   1.494       .  S
C5         C1732   1.488       .  S
C6         C1693   1.496       .  S
C6         C1717   1.484       .  S
C7            C8   1.379       .  D
C7         C1660   1.495       .  S
C7         C1684   1.508   1_554  S
C8         C1645   1.521   1_554  S
C8         C1669   1.530       .  S
C9           C10   1.395       .  D
C9         C1600   1.547   1_655  S
C9         C1636   1.522       .  S
C10        C1609   1.509       .  S
C10        C1621   1.540   1_655  S
C11          C12   1.385       .  D
C11        C1549   1.521       .  S
C11        C1573   1.534   1_565  S
C12        C1561   1.521   1_565  S
C12        C1585   1.530       .  S
C13          C14   1.367       .  D
C13        C1525   1.489       .  S
C13        C1537   1.499       .  S
C14        C1504   1.485       .  S
C14        C1513   1.516       .  S
C15          C16   1.366       .  D
C15        C1477   1.478       .  S
C15        C1492   1.492       .  S
C16        C1456   1.484       .  S
C16        C1465   1.496       .  S
C17          C18   1.356       .  D
C17        C1429   1.475       .  S
C17        C1441   1.494       .  S
C18        C1408   1.495       .  S
C18        C1420   1.513       .  S
C19          C20   1.388       .  D
C19        C1381   1.539       .  S
C19        C1393   1.511       .  S
C20        C1357   1.507       .  S
C20        C1369   1.500       .  S
C21          C22   1.367       .  D
C21        C1333   1.497       .  S
C21        C1348   1.483       .  S
C22        C1309   1.509       .  S
C22        C1321   1.490       .  S
C23          C24   1.368       .  D
C23        C1288   1.489       .  S
C23        C1297   1.514       .  S
C24        C1264   1.485       .  S
C24        C1276   1.511       .  S
C25          C26   1.391       .  D
C25        C1237   1.551   1_556  S
C25        C1249   1.495       .  S
C26        C1216   1.512   1_556  S
C26        C1225   1.527       .  S
C27          C28   1.370       .  D
C27        C1189   1.507   1_556  S
C27        C1201   1.493       .  S
C28        C1165   1.521   1_556  S
C28        C1177   1.521       .  S
C29          C30   1.387       .  D
C29        C1117   1.518   1_655  S
C29        C1129   1.537       .  S
C30        C1141   1.520       .  S
C30        C1153   1.507   1_655  S
C31          C32   1.369       .  D
C31        C1069   1.524       .  S
C31        C1081   1.491   1_565  S
C32        C1093   1.536   1_565  S
C32        C1105   1.501       .  S
C33          C34   1.378       .  D
C33        C1024   1.489       .  S
C33        C1033   1.522   1_655  S
C34        C1045   1.494   1_655  S
C34        C1057   1.515       .  S
C35          C36   1.376       .  D
C35        C1000   1.537       .  S
C35        C1009   1.515   1_565  S
C36         C973   1.509   1_565  S
C36         C985   1.490       .  S
N37          N38   1.322       .  A
N37          N43   1.317       .  A
N37         Mn66   2.211       .  S
N38          C45   1.354       .  A
N39          N41   1.313       .  A
N39          N40   1.320       .  A
N39         Mn55   2.195       .  S
N40          C46   1.351       .  A
N41          N42   1.326       .  A
N41         Mn66   2.223   1_554  S
N42          C46   1.358       .  A
N43          N44   1.322       .  A
N43         Mn55   2.215   1_556  S
N44          C45   1.354       .  A
C45         C651   1.484       .  S
C46         C681   1.489       .  S
N47          N53   1.318       .  A
N47          N48   1.331       .  A
N47         Mn77   2.245       .  S
N48          C56   1.366       .  A
N49          N50   1.314       .  A
N49          N51   1.317       .  A
N49         Mn55   2.224   1_556  S
N50          C57   1.352       .  A
N51          N52   1.335       .  A
N51         Mn77   2.238   1_556  S
N52          C57   1.364       .  A
N53          N54   1.313       .  A
N53         Mn55   2.215       .  S
N54          C56   1.350       .  A
Mn55        Cl79   2.478       .  S
C56         C647   1.506       .  S
C57         C181   1.513       .  S
N58          N59   1.317       .  A
N58          N64   1.316       .  A
N58         Mn66   2.200   1_554  S
N59          C67   1.353       .  A
N60          N62   1.313       .  A
N60          N61   1.314       .  A
N60         Mn78   2.152       .  S
N61          C68   1.345       .  A
N62          N63   1.322       .  A
N62         Mn66   2.214       .  S
N63          C68   1.358       .  A
N64          N65   1.317       .  A
N64         Mn78   2.176   1_554  S
N65          C67   1.350       .  A
Mn66        Cl79   2.589   1_556  S
C67         C683   1.472       .  S
C68         C637   1.480       .  S
N69          N70   1.334       .  A
N69          N75   1.315       .  A
N69         Mn77   2.247   1_556  S
N70          C80   1.368       .  A
N71          N72   1.312       .  A
N71          N73   1.314       .  A
N71         Mn78   2.205   1_554  S
N72          C81   1.346       .  A
N73          N74   1.337       .  A
N73         Mn77   2.249       .  S
N74          C81   1.368       .  A
N75          N76   1.313       .  A
N75         Mn78   2.216       .  S
N76          C80   1.353       .  A
Mn77        Cl79   2.647       .  S
Mn78        Cl79   2.475   1_556  S
C80         C176   1.510       .  S
C81         C649   1.509       .  S
N82          N83   1.332       .  A
N82          N88   1.312       .  A
N82        Mn111   2.225       .  S
N83          C90   1.365       .  A
N84          N86   1.312       .  A
N84          N85   1.334       .  A
N84        Mn100   2.238       .  S
N85          C91   1.366       .  A
N86          N87   1.306       .  A
N86        Mn111   2.163       .  S
N87          C91   1.345       .  A
N88          N89   1.310       .  A
N88        Mn100   2.194       .  S
N89          C90   1.349       .  A
C90         C127   1.502       .  S
C91         C640   1.495       .  S
N92          N98   1.313       .  A
N92          N93   1.308       .  A
N92        Mn122   2.164       .  S
N93         C101   1.344       .  A
N94          N95   1.302       .  A
N94          N96   1.312       .  A
N94        Mn100   2.161   1_554  S
N95         C102   1.343       .  A
N96          N97   1.330       .  A
N96        Mn122   2.209       .  S
N97         C102   1.362       .  A
N98          N99   1.333       .  A
N98        Mn100   2.246   1_554  S
N99         C101   1.368       .  A
Mn100      Cl124   2.513       .  S
C101        C677   1.509       .  S
C102        C183   1.482       .  S
N103        N104   1.311       .  A
N103        N109   1.314       .  A
N103       Mn111   2.176       .  S
N104        C112   1.346       .  A
N105        N107   1.311       .  A
N105        N106   1.304       .  A
N105       Mn123   2.166       .  S
N106        C113   1.345       .  A
N107        N108   1.332       .  A
N107       Mn111   2.227       .  S
N108        C113   1.364       .  A
N109        N110   1.332       .  A
N109       Mn123   2.244       .  S
N110        C112   1.366       .  A
Mn111      Cl124   2.539       .  S
C112        C646   1.507       .  S
C113        C179   1.488       .  S
N114        N115   1.332       .  A
N114        N120   1.312       .  A
N114       Mn122   2.230       .  S
N115        C125   1.365       .  A
N116        N117   1.331       .  A
N116        N118   1.312       .  A
N116       Mn123   2.239   1_554  S
N117        C126   1.367       .  A
N118        N119   1.307       .  A
N118       Mn122   2.155       .  S
N119        C126   1.342       .  A
N120        N121   1.311       .  A
N120       Mn123   2.186   1_554  S
N121        C125   1.349       .  A
Mn122      Cl124   2.533   1_554  S
Mn123      Cl124   2.515       .  S
C125        C130   1.505       .  S
C126        C680   1.504       .  S
C127        C128   1.373       .  D
C127       C1204   1.541       .  S
C128        C151   1.500       .  S
C128       C1144   1.492       .  S
C129        C130   1.371       .  D
C129        C204   1.503       .  S
C129       C1021   1.545       .  S
C130        C961   1.498       .  S
N131        N132   1.306       .  A
N131        N137   1.316       .  A
N131       Mn160   2.181       .  S
N132        C139   1.341       .  A
N133        N135   1.316       .  A
N133        N134   1.329       .  A
N133       Mn149   2.218   1_455  S
N134        C140   1.361       .  A
N135        N136   1.311       .  A
N135       Mn160   2.215   1_455  S
N136        C140   1.354       .  A
N137        N138   1.341       .  A
N137       Mn149   2.272       .  S
N138        C139   1.373       .  A
C139        C178   1.519       .  S
C140        C180   1.491       .  S
N141        N147   1.315       .  A
N141        N142   1.304       .  A
N141       Mn171   2.202   1_455  S
N142        C150   1.345       .  A
N143        N144   1.336       .  A
N143        N145   1.318       .  A
N143       Mn149   2.235       .  S
N144        C151   1.366       .  A
N145        N146   1.304       .  A
N145       Mn171   2.196       .  S
N146        C151   1.344       .  A
N147        N148   1.341       .  A
N147       Mn149   2.250   1_455  S
N148        C150   1.369       .  A
Mn149      Cl173   2.651       .  S
C150        C177   1.527       .  S
N152        N153   1.314       .  A
N152        N158   1.312       .  A
N152       Mn160   2.148   1_455  S
N153        C161   1.346       .  A
N154        N156   1.315       .  A
N154        N155   1.319       .  A
N154       Mn172   2.199       .  S
N155        C162   1.354       .  A
N156        N157   1.318       .  A
N156       Mn160   2.195       .  S
N157        C162   1.352       .  A
N158        N159   1.319       .  A
N158       Mn172   2.199   1_455  S
N159        C161   1.356       .  A
Mn160      Cl173   2.471       .  S
C161        C664   1.463       .  S
C162        C657   1.473       .  S
N163        N164   1.318       .  A
N163        N169   1.313       .  A
N163       Mn171   2.199       .  S
N164        C174   1.351       .  A
N165        N166   1.323       .  A
N165        N167   1.315       .  A
N165       Mn172   2.216   1_455  S
N166        C175   1.354       .  A
N167        N168   1.322       .  A
N167       Mn171   2.206   1_455  S
N168        C175   1.352       .  A
N169        N170   1.326       .  A
N169       Mn172   2.215       .  S
N170        C174   1.358       .  A
Mn171      Cl173   2.466       .  S
Mn172      Cl173   2.602       .  S
C174        C631   1.491       .  S
C175        C620   1.481       .  S
C176        C177   1.372       .  D
C176       C1648   1.525       .  S
C177       C1156   1.518       .  S
C178        C179   1.368       .  D
C178        C949   1.528       .  S
C179        C937   1.504       .  S
C180        C181   1.360       .  D
C180        C925   1.504       .  S
C181       C1228   1.496       .  S
C182        C183   1.363       .  D
C182        C227   1.510       .  S
C182       C1633   1.517       .  S
C183       C1192   1.505       .  S
N184        N185   1.334       .  A
N184        N190   1.314       .  A
N184       Mn213   2.243       .  S
N185        C192   1.366       .  A
N186        N188   1.314       .  A
N186        N187   1.333       .  A
N186       Mn202   2.232   1_455  S
N187        C193   1.365       .  A
N188        N189   1.309       .  A
N188       Mn213   2.196       .  S
N189        C193   1.350       .  A
N190        N191   1.305       .  A
N190       Mn202   2.160   1_455  S
N191        C192   1.342       .  A
C192        C648   1.495       .  S
C193        C653   1.505       .  S
N194        N200   1.310       .  A
N194        N195   1.301       .  A
N194       Mn224   2.160       .  S
N195        C203   1.344       .  A
N196        N197   1.313       .  A
N196        N198   1.314       .  A
N196       Mn202   2.201       .  S
N197        C204   1.350       .  A
N198        N199   1.329       .  A
N198       Mn224   2.225       .  S
N199        C204   1.362       .  A
N200        N201   1.337       .  A
N200       Mn202   2.237       .  S
N201        C203   1.368       .  A
Mn202      Cl226   2.533       .  S
C203        C655   1.505       .  S
N205        N206   1.309       .  A
N205        N211   1.315       .  A
N205       Mn213   2.180       .  S
N206        C214   1.348       .  A
N207        N209   1.312       .  A
N207        N208   1.293       .  A
N207       Mn225   2.165   1_455  S
N208        C215   1.333       .  A
N209        N210   1.344       .  A
N209       Mn213   2.244       .  S
N210        C215   1.373       .  A
N211        N212   1.331       .  A
N211       Mn225   2.230   1_455  S
N212        C214   1.363       .  A
Mn213      Cl226   2.544   1_455  S
C214        C628   1.503       .  S
C215        C650   1.519       .  S
N216        N217   1.337       .  A
N216        N222   1.312       .  A
N216       Mn224   2.248       .  S
N217        C227   1.367       .  A
N218        N219   1.329       .  A
N218        N220   1.312       .  A
N218       Mn225   2.220       .  S
N219        C228   1.362       .  A
N220        N221   1.312       .  A
N220       Mn224   2.184       .  S
N221        C228   1.347       .  A
N222        N223   1.311       .  A
N222       Mn225   2.201       .  S
N223        C227   1.341       .  A
Mn224      Cl226   2.525       .  S
Mn225      Cl226   2.514       .  S
C228        C622   1.505       .  S
N229        N230   1.307       .  A
N229        N235   1.319       .  A
N229       Mn258   2.215   1_556  S
N230        C237   1.347       .  A
N231        N233   1.311       .  A
N231        N232   1.335       .  A
N231       Mn247   2.222       .  S
N232        C238   1.366       .  A
N233        N234   1.301       .  A
N233       Mn258   2.181       .  S
N234        C238   1.341       .  A
N235        N236   1.334       .  A
N235       Mn247   2.229   1_556  S
N236        C237   1.364       .  A
C237        C373   1.499       .  S
C238        C634   1.507       .  S
N239        N245   1.313       .  A
N239        N240   1.312       .  A
N239       Mn269   2.212       .  S
N240        C248   1.354       .  A
N241        N242   1.338       .  A
N241        N243   1.316       .  A
N241       Mn247   2.243   1_556  S
N242        C249   1.366       .  A
N243        N244   1.311       .  A
N243       Mn269   2.212   1_556  S
N244        C249   1.349       .  A
N245        N246   1.329       .  A
N245       Mn247   2.218       .  S
N246        C248   1.364       .  A
Mn247      Cl271   2.656       .  S
C248        C636   1.500       .  S
C249        C321   1.511       .  S
N250        N251   1.319       .  A
N250        N256   1.314       .  A
N250       Mn258   2.188       .  S
N251        C259   1.349       .  A
N252        N254   1.314       .  A
N252        N253   1.328       .  A
N252       Mn270   2.234       .  S
N253        C260   1.360       .  A
N254        N255   1.318       .  A
N254       Mn258   2.193   1_556  S
N255        C260   1.351       .  A
N256        N257   1.327       .  A
N256       Mn270   2.235   1_554  S
N257        C259   1.360       .  A
Mn258      Cl271   2.460       .  S
C259        C684   1.495       .  S
C260        C638   1.507       .  S
N261        N262   1.318       .  A
N261        N267   1.317       .  A
N261       Mn269   2.193   1_556  S
N262        C272   1.351       .  A
N263        N264   1.322       .  A
N263        N265   1.311       .  A
N263       Mn270   2.215   1_554  S
N264        C273   1.360       .  A
N265        N266   1.314       .  A
N265       Mn269   2.150       .  S
N266        C273   1.344       .  A
N267        N268   1.320       .  A
N267       Mn270   2.209       .  S
N268        C272   1.353       .  A
Mn269      Cl271   2.459       .  S
Mn270      Cl271   2.600   1_556  S
C272        C639   1.467       .  S
C273        C678   1.473       .  S
N274        N275   1.314       .  A
N274        N280   1.310       .  A
N274       Mn303   2.223       .  S
N275        C282   1.356       .  A
N276        N278   1.317       .  A
N276        N277   1.338       .  A
N276       Mn292   2.247   1_545  S
N277        C283   1.367       .  A
N278        N279   1.317       .  A
N278       Mn303   2.255   1_545  S
N279        C283   1.352       .  A
N280        N281   1.332       .  A
N280       Mn292   2.222       .  S
N281        C282   1.366       .  A
C282        C320   1.511       .  S
C283        C372   1.519       .  S
N284        N290   1.317       .  A
N284        N285   1.307       .  A
N284       Mn314   2.195   1_545  S
N285        C293   1.344       .  A
N286        N287   1.327       .  A
N286        N288   1.315       .  A
N286       Mn292   2.222       .  S
N287        C294   1.362       .  A
N288        N289   1.315       .  A
N288       Mn314   2.208       .  S
N289        C294   1.354       .  A
N290        N291   1.336       .  A
N290       Mn292   2.242   1_545  S
N291        C293   1.366       .  A
Mn292      Cl316   2.654       .  S
C293        C322   1.502       .  S
C294        C324   1.495       .  S
N295        N296   1.320       .  A
N295        N301   1.316       .  A
N295       Mn303   2.203   1_545  S
N296        C304   1.353       .  A
N297        N299   1.315       .  A
N297        N298   1.325       .  A
N297       Mn315   2.221       .  S
N298        C305   1.358       .  A
N299        N300   1.317       .  A
N299       Mn303   2.186       .  S
N300        C305   1.347       .  A
N301        N302   1.320       .  A
N301       Mn315   2.204   1_545  S
N302        C304   1.352       .  A
Mn303      Cl316   2.459       .  S
C304        C630   1.477       .  S
C305        C618   1.485       .  S
N306        N307   1.315       .  A
N306        N312   1.311       .  A
N306       Mn314   2.160       .  S
N307        C317   1.347       .  A
N308        N309   1.326       .  A
N308        N310   1.316       .  A
N308       Mn315   2.232   1_545  S
N309        C318   1.358       .  A
N310        N311   1.318       .  A
N310       Mn314   2.195   1_545  S
N311        C318   1.351       .  A
N312        N313   1.323       .  A
N312       Mn315   2.214       .  S
N313        C317   1.359       .  A
Mn314      Cl316   2.471       .  S
Mn315      Cl316   2.592       .  S
C317        C661   1.485       .  S
C318        C660   1.504       .  S
C319        C320   1.373       .  D
C319        C333   1.534       .  S
C319       C1252   1.512       .  S
C320       C1108   1.528       .  S
C321        C322   1.371       .  D
C321       C1180   1.500       .  S
C322        C913   1.520       .  S
C323        C324   1.362       .  D
C323        C356   1.498       .  S
C323        C904   1.503       .  S
C324        C889   1.514       .  S
N325        N326   1.339       .  A
N325        N331   1.314       .  A
N325       Mn354   2.231       .  S
N326        C333   1.366       .  A
N327        N329   1.316       .  A
N327        N328   1.312       .  A
N327       Mn343   2.204       .  S
N328        C334   1.350       .  A
N329        N330   1.338       .  A
N329       Mn354   2.268   1_554  S
N330        C334   1.371       .  A
N331        N332   1.310       .  A
N331       Mn343   2.241   1_556  S
N332        C333   1.353       .  A
C334        C370   1.510       .  S
N335        N341   1.317       .  A
N335        N336   1.324       .  A
N335       Mn365   2.224   1_554  S
N336        C344   1.355       .  A
N337        N338   1.318       .  A
N337        N339   1.315       .  A
N337       Mn343   2.194   1_556  S
N338        C345   1.350       .  A
N339        N340   1.325       .  A
N339       Mn365   2.224       .  S
N340        C345   1.358       .  A
N341        N342   1.321       .  A
N341       Mn343   2.204       .  S
N342        C344   1.351       .  A
Mn343      Cl367   2.468   1_554  S
C344        C682   1.483       .  S
C345        C652   1.495       .  S
N346        N347   1.336       .  A
N346        N352   1.316       .  A
N346       Mn354   2.231   1_554  S
N347        C355   1.363       .  A
N348        N350   1.314       .  A
N348        N349   1.310       .  A
N348       Mn366   2.179       .  S
N349        C356   1.346       .  A
N350        N351   1.332       .  A
N350       Mn354   2.257       .  S
N351        C356   1.370       .  A
N352        N353   1.310       .  A
N352       Mn366   2.213   1_554  S
N353        C355   1.350       .  A
Mn354      Cl367   2.654       .  S
C355        C374   1.507       .  S
N357        N358   1.321       .  A
N357        N363   1.312       .  A
N357       Mn365   2.190       .  S
N358        C368   1.356       .  A
N359        N360   1.318       .  A
N359        N361   1.315       .  A
N359       Mn366   2.182   1_554  S
N360        C369   1.351       .  A
N361        N362   1.321       .  A
N361       Mn365   2.218   1_554  S
N362        C369   1.357       .  A
N363        N364   1.315       .  A
N363       Mn366   2.177       .  S
N364        C368   1.346       .  A
Mn365      Cl367   2.612       .  S
Mn366      Cl367   2.463       .  S
C368        C645   1.464       .  S
C369        C679   1.482       .  S
C370        C371   1.369       .  D
C370       C1240   1.494       .  S
C371        C396   1.509       .  S
C371       C1552   1.528       .  S
C372        C373   1.378       .  D
C372       C1096   1.502       .  S
C373       C1681   1.523       .  S
C374        C375   1.370       .  D
C374        C880   1.513       .  S
C375        C384   1.503       .  S
C375        C988   1.500       .  S
N376        N377   1.304       .  A
N376        N382   1.315       .  A
N376       Mn405   2.219       .  S
N377        C384   1.349       .  A
N378        N380   1.315       .  A
N378        N379   1.336       .  A
N378       Mn394   2.256   1_545  S
N379        C385   1.370       .  A
N380        N381   1.305       .  A
N380       Mn405   2.174   1_545  S
N381        C385   1.340       .  A
N382        N383   1.335       .  A
N382       Mn394   2.213       .  S
N383        C384   1.363       .  A
C385        C635   1.509       .  S
N386        N392   1.315       .  A
N386        N387   1.315       .  A
N386       Mn416   2.226   1_545  S
N387        C395   1.356       .  A
N388        N389   1.338       .  A
N388        N390   1.314       .  A
N388       Mn394   2.267       .  S
N389        C396   1.371       .  A
N390        N391   1.311       .  A
N390       Mn416   2.188       .  S
N391        C396   1.344       .  A
N392        N393   1.330       .  A
N392       Mn394   2.225   1_545  S
N393        C395   1.363       .  A
Mn394      Cl418   2.649       .  S
C395        C633   1.506       .  S
N397        N398   1.324       .  A
N397        N403   1.315       .  A
N397       Mn405   2.221   1_545  S
N398        C406   1.355       .  A
N399        N401   1.313       .  A
N399        N400   1.324       .  A
N399       Mn417   2.220       .  S
N400        C407   1.358       .  A
N401        N402   1.318       .  A
N401       Mn405   2.178       .  S
N402        C407   1.348       .  A
N403        N404   1.324       .  A
N403       Mn417   2.214   1_545  S
N404        C406   1.355       .  A
Mn405      Cl418   2.459       .  S
C406        C643   1.494       .  S
C407        C641   1.484       .  S
N408        N409   1.316       .  A
N408        N414   1.314       .  A
N408       Mn416   2.172       .  S
N409        C419   1.348       .  A
N410        N411   1.321       .  A
N410        N412   1.314       .  A
N410       Mn417   2.210   1_545  S
N411        C420   1.356       .  A
N412        N413   1.314       .  A
N412       Mn416   2.153   1_545  S
N413        C420   1.346       .  A
N414        N415   1.320       .  A
N414       Mn417   2.204       .  S
N415        C419   1.354       .  A
Mn416      Cl418   2.469       .  S
Mn417      Cl418   2.596       .  S
C419        C626   1.479       .  S
C420        C623   1.470       .  S
N421        N422   1.324       .  A
N421        N427   1.313       .  A
N421       Mn450   2.211       .  S
N422        C429   1.356       .  A
N423        N425   1.314       .  A
N423        N424   1.321       .  A
N423       Mn439   2.205   1_545  S
N424        C430   1.353       .  A
N425        N426   1.322       .  A
N425       Mn450   2.203   1_545  S
N426        C430   1.354       .  A
N427        N428   1.317       .  A
N427       Mn439   2.182       .  S
N428        C429   1.349       .  A
C429        C625   1.486       .  S
C430        C624   1.494       .  S
N431        N437   1.316       .  A
N431        N432   1.338       .  A
N431       Mn461   2.267   1_545  S
N432        C440   1.371       .  A
N433        N434   1.316       .  A
N433        N435   1.316       .  A
N433       Mn439   2.225       .  S
N434        C441   1.355       .  A
N435        N436   1.333       .  A
N435       Mn461   2.246       .  S
N436        C441   1.367       .  A
N437        N438   1.311       .  A
N437       Mn439   2.198   1_545  S
N438        C440   1.345       .  A
Mn439      Cl463   2.468       .  S
C440        C614   1.509       .  S
C441        C611   1.517       .  S
N442        N443   1.324       .  A
N442        N448   1.313       .  A
N442       Mn450   2.211   1_545  S
N443        C451   1.355       .  A
N444        N446   1.313       .  A
N444        N445   1.317       .  A
N444       Mn462   2.191       .  S
N445        C452   1.350       .  A
N446        N447   1.322       .  A
N446       Mn450   2.202       .  S
N447        C452   1.355       .  A
N448        N449   1.316       .  A
N448       Mn462   2.182   1_545  S
N449        C451   1.350       .  A
Mn450      Cl463   2.601       .  S
C451        C629   1.487       .  S
C452        C617   1.486       .  S
N453        N454   1.341       .  A
N453        N459   1.317       .  A
N453       Mn461   2.262       .  S
N454        C464   1.371       .  A
N455        N456   1.301       .  A
N455        N457   1.315       .  A
N455       Mn462   2.199   1_545  S
N456        C465   1.342       .  A
N457        N458   1.339       .  A
N457       Mn461   2.237   1_545  S
N458        C465   1.367       .  A
N459        N460   1.304       .  A
N459       Mn462   2.199       .  S
N460        C464   1.344       .  A
Mn461      Cl463   2.655       .  S
Mn462      Cl463   2.463       .  S
C464        C607   1.515       .  S
C465        C615   1.511       .  S
N466        N467   1.324       .  A
N466        N472   1.313       .  A
N466       Mn495   2.224   1_455  S
N467        C474   1.360       .  A
N468        N470   1.315       .  A
N468        N469   1.319       .  A
N468       Mn484   2.190       .  S
N469        C475   1.351       .  A
N470        N471   1.327       .  A
N470       Mn495   2.240       .  S
N471        C475   1.360       .  A
N472        N473   1.317       .  A
N472       Mn484   2.175   1_455  S
N473        C474   1.348       .  A
C474        C627   1.486       .  S
C475        C621   1.497       .  S
N476        N482   1.314       .  A
N476        N477   1.336       .  A
N476       Mn506   2.236       .  S
N477        C485   1.367       .  A
N478        N479   1.308       .  A
N478        N480   1.318       .  A
N478       Mn484   2.215   1_455  S
N479        C486   1.349       .  A
N480        N481   1.340       .  A
N480       Mn506   2.265   1_455  S
N481        C486   1.371       .  A
N482        N483   1.304       .  A
N482       Mn484   2.182       .  S
N483        C485   1.344       .  A
Mn484      Cl508   2.487       .  S
C485        C512   1.511       .  S
C486        C613   1.515       .  S
N487        N488   1.323       .  A
N487        N493   1.314       .  A
N487       Mn495   2.204       .  S
N488        C496   1.354       .  A
N489        N491   1.318       .  A
N489        N490   1.321       .  A
N489       Mn507   2.211   1_455  S
N490        C497   1.353       .  A
N491        N492   1.323       .  A
N491       Mn495   2.225   1_455  S
N492        C497   1.355       .  A
N493        N494   1.318       .  A
N493       Mn507   2.191       .  S
N494        C496   1.349       .  A
Mn495      Cl508   2.591       .  S
C496        C632   1.476       .  S
C497        C619   1.485       .  S
N498        N499   1.337       .  A
N498        N504   1.318       .  A
N498       Mn506   2.242   1_455  S
N499        C509   1.364       .  A
N500        N501   1.314       .  A
N500        N502   1.317       .  A
N500       Mn507   2.213       .  S
N501        C510   1.352       .  A
N502        N503   1.334       .  A
N502       Mn506   2.261       .  S
N503        C510   1.369       .  A
N504        N505   1.315       .  A
N504       Mn507   2.233   1_455  S
N505        C509   1.354       .  A
Mn506      Cl508   2.651       .  S
Mn507      Cl508   2.488       .  S
C509        C616   1.516       .  S
C510        C609   1.511       .  S
C511        C512   1.352       .  D
C511        C521   1.491       .  S
C511       C1012   1.508       .  S
C512       C1612   1.503       .  S
N513        N514   1.310       .  A
N513        N519   1.314       .  A
N513       Mn542   2.187   1_545  S
N514        C521   1.348       .  A
N515        N517   1.321       .  A
N515        N516   1.336       .  A
N515       Mn531   2.252       .  S
N516        C522   1.365       .  A
N517        N518   1.316       .  A
N517       Mn542   2.236       .  S
N518        C522   1.351       .  A
N519        N520   1.330       .  A
N519       Mn531   2.231   1_545  S
N520        C521   1.364       .  A
C522        C605   1.508       .  S
N523        N529   1.315       .  A
N523        N524   1.306       .  A
N523       Mn553   2.167       .  S
N524        C532   1.340       .  A
N525        N526   1.330       .  A
N525        N527   1.316       .  A
N525       Mn531   2.233   1_545  S
N526        C533   1.363       .  A
N527        N528   1.317       .  A
N527       Mn553   2.227   1_545  S
N528        C533   1.358       .  A
N529        N530   1.338       .  A
N529       Mn531   2.261       .  S
N530        C532   1.370       .  A
Mn531      Cl555   2.631       .  S
C532        C559   1.504       .  S
C533        C610   1.506       .  S
N534        N535   1.318       .  A
N534        N540   1.314       .  A
N534       Mn542   2.184       .  S
N535        C543   1.350       .  A
N536        N538   1.314       .  A
N536        N537   1.322       .  A
N536       Mn554   2.207   1_545  S
N537        C544   1.354       .  A
N538        N539   1.318       .  A
N538       Mn542   2.188   1_545  S
N539        C544   1.350       .  A
N540        N541   1.321       .  A
N540       Mn554   2.214       .  S
N541        C543   1.356       .  A
Mn542      Cl555   2.484       .  S
C543        C642   1.483       .  S
C544        C644   1.473       .  S
N545        N546   1.313       .  A
N545        N551   1.312       .  A
N545       Mn553   2.146   1_545  S
N546        C556   1.343       .  A
N547        N548   1.322       .  A
N547        N549   1.316       .  A
N547       Mn554   2.210       .  S
N548        C557   1.354       .  A
N549        N550   1.317       .  A
N549       Mn553   2.186       .  S
N550        C557   1.349       .  A
N551        N552   1.321       .  A
N551       Mn554   2.207   1_545  S
N552        C556   1.356       .  A
Mn553      Cl555   2.483       .  S
Mn554      Cl555   2.577       .  S
C556        C659   1.469       .  S
C557        C662   1.483       .  S
C558        C559   1.365       .  D
C558        C580   1.492       .  S
C558        C853   1.501       .  S
C559        C865   1.522       .  S
N560        N561   1.333       .  A
N560        N566   1.310       .  A
N560       Mn589   2.227       .  S
N561        C568   1.365       .  A
N562        N564   1.314       .  A
N562        N563   1.337       .  A
N562       Mn578   2.271   1_455  S
N563        C569   1.372       .  A
N564        N565   1.309       .  A
N564       Mn589   2.165       .  S
N565        C569   1.344       .  A
N566        N567   1.309       .  A
N566       Mn578   2.179   1_455  S
N567        C568   1.347       .  A
C568        C608   1.495       .  S
C569        C663   1.519       .  S
N570        N576   1.315       .  A
N570        N571   1.303       .  A
N570       Mn600   2.169       .  S
N571        C579   1.344       .  A
N572        N573   1.305       .  A
N572        N574   1.313       .  A
N572       Mn578   2.193       .  S
N573        C580   1.348       .  A
N574        N575   1.332       .  A
N574       Mn600   2.216       .  S
N575        C580   1.364       .  A
N576        N577   1.335       .  A
N576       Mn578   2.234       .  S
N577        C579   1.364       .  A
Mn578      Cl602   2.509       .  S
C579        C658   1.508       .  S
N581        N582   1.313       .  A
N581        N587   1.314       .  A
N581       Mn589   2.189       .  S
N582        C590   1.346       .  A
N583        N585   1.310       .  A
N583        N584   1.306       .  A
N583       Mn601   2.169   1_455  S
N584        C591   1.345       .  A
N585        N586   1.331       .  A
N585       Mn589   2.224       .  S
N586        C591   1.363       .  A
N587        N588   1.334       .  A
N587       Mn601   2.252   1_455  S
N588        C590   1.367       .  A
Mn589      Cl602   2.541   1_455  S
C590        C654   1.510       .  S
C591        C612   1.493       .  S
N592        N593   1.337       .  A
N592        N598   1.309       .  A
N592       Mn600   2.235       .  S
N593        C603   1.368       .  A
N594        N595   1.335       .  A
N594        N596   1.316       .  A
N594       Mn601   2.254       .  S
N595        C604   1.367       .  A
N596        N597   1.313       .  A
N596       Mn600   2.210       .  S
N597        C604   1.351       .  A
N598        N599   1.306       .  A
N598       Mn601   2.171       .  S
N599        C603   1.346       .  A
Mn600      Cl602   2.555       .  S
Mn601      Cl602   2.512       .  S
C603        C606   1.499       .  S
C604        C656   1.516       .  S
C605        C606   1.371       .  D
C605        C997   1.505       .  S
C606       C1060   1.511       .  S
C607        C608   1.379       .  D
C607       C1072   1.498       .  S
C608        C844   1.546       .  S
C609        C610   1.373       .  D
C609       C1132   1.514       .  S
C610        C832   1.511       .  S
C611        C612   1.359       .  D
C611       C1588   1.493       .  S
C612       C1048   1.526       .  S
C613        C614   1.368       .  D
C613       C1624   1.493       .  S
C614       C1564   1.529       .  S
C615        C616   1.375       .  D
C615       C1084   1.528       .  S
C616       C1120   1.500       .  S
C617        C618   1.369       .  D
C617       C1480   1.529       .  S
C618        C817   1.474       .  S
C619        C620   1.363       .  D
C619       C1789   1.485       .  S
C620       C1273   1.487       .  S
C621        C622   1.381       .  D
C621       C1528   1.496       .  S
C622       C1396   1.558       .  S
C623        C624   1.376       .  D
C623       C1720   1.541       .  S
C624       C1801   1.479       .  S
C625        C626   1.368       .  D
C625       C1489   1.466       .  S
C626       C1432   1.532       .  S
C627        C628   1.373       .  D
C627       C1828   1.540       .  S
C628       C1744   1.490       .  S
C629        C630   1.369       .  D
C629       C1816   1.520       .  S
C630       C1312   1.471       .  S
C631        C632   1.365       .  D
C631        C805   1.495       .  S
C632       C1540   1.489       .  S
C633        C634   1.362       .  D
C633       C1576   1.502       .  S
C634       C1657   1.515       .  S
C635        C636   1.366       .  D
C635        C976   1.517       .  S
C636       C1168   1.516       .  S
C637        C638   1.382       .  D
C637       C1285   1.545       .  S
C638       C1345   1.496       .  S
C639        C640   1.360       .  D
C639       C1336   1.492       .  S
C640        C793   1.492       .  S
C641        C642   1.377       .  D
C641       C1444   1.479       .  S
C642        C781   1.532       .  S
C643        C644   1.364       .  D
C643       C1696   1.489       .  S
C644       C1516   1.491       .  S
C645        C646   1.363       .  D
C645        C769   1.470       .  S
C646        C760   1.532       .  S
C647        C648   1.359       .  D
C647       C1213   1.521       .  S
C648       C1036   1.502       .  S
C649        C650   1.359       .  D
C649       C1672   1.497       .  S
C650       C1597   1.536       .  S
C651        C652   1.373       .  D
C651       C1300   1.475       .  S
C652        C745   1.530       .  S
C653        C654   1.371       .  D
C653       C1765   1.494       .  S
C654       C1453   1.552       .  S
C655        C656   1.373       .  D
C655       C1384   1.496       .  S
C656        C736   1.546       .  S
C657        C658   1.366       .  D
C657        C721   1.522       .  S
C658        C709   1.484       .  S
C659        C660   1.382       .  D
C659       C1501   1.544       .  S
C660       C1324   1.492       .  S
C661        C662   1.373       .  D
C661        C685   1.541       .  S
C662        C697   1.474       .  S
C663        C664   1.366       .  D
C663       C1468   1.482       .  S
C664       C1261   1.541       .  S
C665        C666   1.383       .  D
C665        C841   1.505   1_655  S
C665        C856   1.505       .  S
C666        C928   1.540   1_655  S
C666        C952   1.522       .  S
C667        C668   1.380       .  D
C667        C892   1.529       .  S
C667        C916   1.501   1_565  S
C668        C829   1.539   1_565  S
C668        C868   1.505       .  S
C669        C670   1.377       .  D
C669        C940   1.505   1_554  S
C669        C964   1.498       .  S
C670        C877   1.516       .  S
C670        C901   1.535   1_554  S
C671        C672   1.359       .  D
C671        C688   1.478       .  S
C671        C820   1.501       .  S
C672        C748   1.480       .  S
C672        C772   1.503       .  S
C673        C674   1.358       .  D
C673        C724   1.480       .  S
C673        C808   1.487       .  S
C674        C757   1.496       .  S
C674        C796   1.504       .  S
C675        C676   1.373       .  D
C675        C700   1.479       .  S
C675        C784   1.487       .  S
C676        C712   1.545       .  S
C676        C733   1.494       .  S
C677        C678   1.367       .  D
C677       C1360   1.490       .  S
C678       C1729   1.536       .  S
C679        C680   1.369       .  D
C679       C1405   1.519       .  S
C680       C1372   1.517       .  S
C681        C682   1.362       .  D
C681       C1753   1.485       .  S
C682       C1417   1.494       .  S
C683        C684   1.371       .  D
C683       C1780   1.542       .  S
C684       C1705   1.463       .  S
C685        C686   1.423       .  A
C685        C690   1.430       .  A
C686        C687   1.378       .  A
C686        H691   1.074       .  S
C687        C688   1.391       .  A
C687        O692   1.375       .  S
C688        C689   1.398       .  A
C689        C690   1.416       .  A
C689        H693   1.083       .  S
C690        O694   1.368       .  S
O692        H696   0.992       .  S
O694        H695   0.993       .  S
C697        C698   1.406       .  A
C697        C702   1.405       .  A
C698        C699   1.396       .  A
C698        H703   1.083       .  S
C699        C700   1.409       .  A
C699        O704   1.375       .  S
C700        C701   1.408       .  A
C701        C702   1.399       .  A
C701        H705   1.083       .  S
C702        O706   1.372       .  S
O704        H708   0.992       .  S
O706        H707   0.992       .  S
C709        C710   1.392       .  A
C709        C714   1.399       .  A
C710        C711   1.383       .  A
C710        H715   1.086       .  S
C711        C712   1.431       .  A
C711        O716   1.361       .  S
C712        C713   1.423       .  A
C713        C714   1.410       .  A
C713        H717   1.065       .  S
C714        O718   1.371       .  S
O716        H720   0.992       .  S
O718        H719   0.992       .  S
C721        C722   1.418       .  A
C721        C726   1.424       .  A
C722        C723   1.393       .  A
C722        H727   1.077       .  S
C723        C724   1.397       .  A
C723        O728   1.372       .  S
C724        C725   1.391       .  A
C725        C726   1.396       .  A
C725        H729   1.081       .  S
C726        O730   1.365       .  S
O728        H732   0.992       .  S
O730        H731   0.993       .  S
C733        C734   1.387       .  A
C733        C738   1.403       .  A
C734        C735   1.398       .  A
C734        H739   1.085       .  S
C735        C736   1.440       .  A
C735        O740   1.360       .  S
C736        C737   1.417       .  A
C737        C738   1.401       .  A
C737        H741   1.084       .  S
C738        O742   1.371       .  S
O740        H744   0.993       .  S
O742        H743   0.992       .  S
C745        C746   1.417       .  A
C745        C750   1.427       .  A
C746        C747   1.391       .  A
C746        H751   1.076       .  S
C747        C748   1.397       .  A
C747        O752   1.373       .  S
C748        C749   1.393       .  A
C749        C750   1.401       .  A
C749        H753   1.084       .  S
C750        O754   1.358       .  S
O752        H756   0.992       .  S
O754        H755   0.992       .  S
C757        C758   1.396       .  A
C757        C762   1.401       .  A
C758        C759   1.407       .  A
C758        H763   1.083       .  S
C759        C760   1.423       .  A
C759        O764   1.365       .  S
C760        C761   1.414       .  A
C761        C762   1.401       .  A
C761        H765   1.084       .  S
C762        O766   1.369       .  S
O764        H768   0.992       .  S
O766        H767   0.991       .  S
C769        C770   1.402       .  A
C769        C774   1.402       .  A
C770        C771   1.402       .  A
C770        H775   1.084       .  S
C771        C772   1.416       .  A
C771        O776   1.368       .  S
C772        C773   1.409       .  A
C773        C774   1.392       .  A
C773        H777   1.078       .  S
C774        O778   1.377       .  S
O776        H780   0.992       .  S
O778        H779   0.991       .  S
C781        C782   1.415       .  A
C781        C786   1.429       .  A
C782        C783   1.402       .  A
C782        H787   1.061       .  S
C783        C784   1.398       .  A
C783        O788   1.372       .  S
C784        C785   1.388       .  A
C785        C786   1.393       .  A
C785        H789   1.083       .  S
C786        O790   1.369       .  S
O788        H792   0.992       .  S
O790        H791   0.993       .  S
C793        C794   1.403       .  A
C793        C798   1.405       .  A
C794        C795   1.396       .  A
C794        H799   1.078       .  S
C795        C796   1.410       .  A
C795        O800   1.371       .  S
C796        C797   1.407       .  A
C797        C798   1.398       .  A
C797        H801   1.068       .  S
C798        O802   1.371       .  S
O800        H804   0.993       .  S
O802        H803   0.991       .  S
C805        C806   1.403       .  A
C805        C810   1.405       .  A
C806        C807   1.395       .  A
C806        H811   1.070       .  S
C807        C808   1.407       .  A
C807        O812   1.370       .  S
C808        C809   1.401       .  A
C809        C810   1.398       .  A
C809        H813   1.079       .  S
C810        O814   1.370       .  S
O812        H816   0.992       .  S
O814        H815   0.988       .  S
C817        C818   1.398       .  A
C817        C822   1.406       .  A
C818        C819   1.396       .  A
C818        H823   1.084       .  S
C819        C820   1.412       .  A
C819        O824   1.374       .  S
C820        C821   1.409       .  A
C821        C822   1.398       .  A
C821        H825   1.076       .  S
C822        O826   1.372       .  S
O824        H828   0.992       .  S
O826        H827   0.991       .  S
C829        C830   1.415   1_545  A
C829        C834   1.421       .  A
C830        C831   1.390   1_565  A
C830        H835   1.076       .  S
C831        C832   1.400       .  A
C831        O836   1.378   1_545  S
C832        C833   1.410       .  A
C833        C834   1.415       .  A
C833        H837   1.067       .  S
C834        O838   1.372       .  S
O836        H840   0.991       .  S
O838        H839   0.993       .  S
C841        C842   1.400       .  A
C841        C846   1.410       .  A
C842        C843   1.415       .  A
C842        H847   1.083       .  S
C843        C844   1.422       .  A
C843        O848   1.368       .  S
C844        C845   1.410       .  A
C845        C846   1.403       .  A
C845        H849   1.060       .  S
C846        O850   1.374       .  S
O848        H852   0.988       .  S
O850        H851   0.992       .  S
C853        C854   1.407       .  A
C853        C858   1.407       .  A
C854        C855   1.408       .  A
C854        H859   1.085       .  S
C855        C856   1.410       .  A
C855        O860   1.376       .  S
C856        C857   1.403       .  A
C857        C858   1.399       .  A
C857        H861   1.071       .  S
C858        O862   1.379       .  S
O860        H864   0.992       .  S
O862        H863   0.993       .  S
C865        C866   1.416       .  A
C865        C870   1.414       .  A
C866        C867   1.411       .  A
C866        H871   1.083       .  S
C867        C868   1.412       .  A
C867        O872   1.371       .  S
C868        C869   1.400       .  A
C869        C870   1.403       .  A
C869        H873   1.085       .  S
C870        O874   1.372       .  S
O872        H876   0.992       .  S
O874        H875   0.993       .  S
C877        C878   1.413       .  A
C877        C882   1.409       .  A
C878        C879   1.398       .  A
C878        H883   1.069       .  S
C879        C880   1.406       .  A
C879        O884   1.372       .  S
C880        C881   1.407       .  A
C881        C882   1.402       .  A
C881        H885   1.069       .  S
C882        O886   1.376       .  S
O884        H888   0.991       .  S
O886        H887   0.992   1_554  S
C889        C890   1.411       .  A
C889        C894   1.405       .  A
C890        C891   1.414       .  A
C890        H895   1.065       .  S
C891        C892   1.418       .  A
C891        O896   1.372       .  S
C892        C893   1.412       .  A
C893        C894   1.382       .  A
C893        H897   1.078       .  S
C894        O898   1.374       .  S
O896        H900   0.992       .  S
O898        H899   0.992       .  S
C901        C902   1.415       .  A
C901        C906   1.421       .  A
C902        C903   1.389       .  A
C902        H907   1.075   1_556  S
C903        C904   1.398       .  A
C903        O908   1.377       .  S
C904        C905   1.411       .  A
C905        C906   1.417       .  A
C905        H909   1.078       .  S
C906        O910   1.372       .  S
O908        H912   0.990       .  S
O910        H911   0.992       .  S
C913        C914   1.414       .  A
C913        C918   1.409       .  A
C914        C915   1.410       .  A
C914        H919   1.083       .  S
C915        C916   1.413       .  A
C915        O920   1.372       .  S
C916        C917   1.404       .  A
C917        C918   1.397       .  A
C917        H921   1.085   1_545  S
C918        O922   1.367       .  S
O920        H924   0.992       .  S
O922        H923   0.990   1_545  S
C925        C926   1.405       .  A
C925        C930   1.395       .  A
C926        C927   1.413       .  A
C926        H931   1.081       .  S
C927        C928   1.427       .  A
C927        O932   1.365       .  S
C928        C929   1.416   1_455  A
C929        C930   1.387   1_655  A
C929        H933   1.073       .  S
C930        O934   1.375   1_455  S
O932        H936   0.993       .  S
O934        H935   0.989       .  S
C937        C938   1.417       .  A
C937        C942   1.402       .  A
C938        C939   1.415       .  A
C938        H943   1.083       .  S
C939        C940   1.413       .  A
C939        O944   1.371       .  S
C940        C941   1.403       .  A
C941        C942   1.391       .  A
C941        H945   1.069       .  S
C942        O946   1.381       .  S
O944        H948   0.992       .  S
O946        H947   0.993       .  S
C949        C950   1.413       .  A
C949        C954   1.407       .  A
C950        C951   1.403       .  A
C950        H955   1.061       .  S
C951        C952   1.406       .  A
C951        O956   1.372       .  S
C952        C953   1.413       .  A
C953        C954   1.403       .  A
C953        H957   1.064       .  S
C954        O958   1.372       .  S
O956        H960   0.991       .  S
O958        H959   0.991       .  S
C961        C962   1.407       .  A
C961        C966   1.411       .  A
C962        C963   1.398       .  A
C962        H967   1.083       .  S
C963        C964   1.408       .  A
C963        O968   1.371       .  S
C964        C965   1.401       .  A
C965        C966   1.399       .  A
C965        H969   1.084       .  S
C966        O970   1.370       .  S
O968        H972   0.992       .  S
O970        H971   0.990       .  S
C973        C974   1.409       .  A
C973        C978   1.407       .  A
C974        C975   1.402       .  A
C974        H979   1.079       .  S
C975        C976   1.409       .  A
C975        O980   1.373       .  S
C976        C977   1.416       .  A
C977        C978   1.406       .  A
C977        H981   1.082       .  S
C978        O982   1.372       .  S
O980        H984   0.992       .  S
O982        H983   0.992       .  S
C985        C986   1.405       .  A
C985        C990   1.408       .  A
C986        C987   1.400       .  A
C986        H991   1.075       .  S
C987        C988   1.405       .  A
C987        O992   1.379       .  S
C988        C989   1.406       .  A
C989        C990   1.394       .  A
C989        H993   1.083       .  S
C990        O994   1.374       .  S
O992        H996   0.993       .  S
O994        H995   0.992       .  S
C997        C998   1.405       .  A
C997       C1002   1.401       .  A
C998        C999   1.403       .  A
C998       H1003   1.079       .  S
C999       C1000   1.415       .  A
C999       O1004   1.371       .  S
C1000      C1001   1.418       .  A
C1001      C1002   1.407       .  A
C1001      H1005   1.062       .  S
C1002      O1006   1.373       .  S
O1004      H1008   0.991       .  S
O1006      H1007   0.992       .  S
C1009      C1010   1.404   1_545  A
C1009      C1014   1.420       .  A
C1010      C1011   1.383   1_565  A
C1010      H1015   1.079       .  S
C1011      C1012   1.395       .  A
C1011      O1016   1.372   1_545  S
C1012      C1013   1.413       .  A
C1013      C1014   1.413       .  A
C1013      H1017   1.080       .  S
C1014      O1018   1.372       .  S
O1016      H1020   0.983       .  S
O1018      H1019   0.992       .  S
C1021      C1022   1.413       .  A
C1021      C1026   1.410       .  A
C1022      C1023   1.408       .  A
C1022      H1027   1.067       .  S
C1023      C1024   1.403       .  A
C1023      O1028   1.372       .  S
C1024      C1025   1.400       .  A
C1025      C1026   1.399       .  A
C1025      H1029   1.084       .  S
C1026      O1030   1.367       .  S
O1028      H1032   0.992       .  S
O1030      H1031   0.990       .  S
C1033      C1034   1.416       .  A
C1033      C1038   1.416       .  A
C1034      C1035   1.413       .  A
C1034      H1039   1.082   1_455  S
C1035      C1036   1.407       .  A
C1035      O1040   1.371       .  S
C1036      C1037   1.399       .  A
C1037      C1038   1.399       .  A
C1037      H1041   1.083       .  S
C1038      O1042   1.361       .  S
O1040      H1044   0.992       .  S
O1042      H1043   0.992       .  S
C1045      C1046   1.410       .  A
C1045      C1050   1.399       .  A
C1046      C1047   1.413       .  A
C1046      H1051   1.082       .  S
C1047      C1048   1.420       .  A
C1047      O1052   1.369       .  S
C1048      C1049   1.407       .  A
C1049      C1050   1.386       .  A
C1049      H1053   1.069       .  S
C1050      O1054   1.374       .  S
O1052      H1056   0.992       .  S
O1054      H1055   0.992   1_455  S
C1057      C1058   1.405       .  A
C1057      C1062   1.418       .  A
C1058      C1059   1.395       .  A
C1058      H1063   1.077       .  S
C1059      C1060   1.408       .  A
C1059      O1064   1.368       .  S
C1060      C1061   1.406       .  A
C1061      C1062   1.408       .  A
C1061      H1065   1.084       .  S
C1062      O1066   1.370       .  S
O1064      H1068   0.992       .  S
O1066      H1067   0.993       .  S
C1069      C1070   1.409       .  A
C1069      C1074   1.420       .  A
C1070      C1071   1.385       .  A
C1070      H1075   1.067       .  S
C1071      C1072   1.398       .  A
C1071      O1076   1.375       .  S
C1072      C1073   1.413       .  A
C1073      C1074   1.417       .  A
C1073      H1077   1.084       .  S
C1074      O1078   1.374       .  S
O1076      H1080   0.992       .  S
O1078      H1079   0.992       .  S
C1081      C1082   1.405       .  A
C1081      C1086   1.399       .  A
C1082      C1083   1.398       .  A
C1082      H1087   1.084       .  S
C1083      C1084   1.415       .  A
C1083      O1088   1.371       .  S
C1084      C1085   1.409       .  A
C1085      C1086   1.396       .  A
C1085      H1089   1.065       .  S
C1086      O1090   1.372       .  S
O1088      H1092   0.991       .  S
O1090      H1091   0.991       .  S
C1093      C1094   1.418       .  A
C1093      C1098   1.415       .  A
C1094      C1095   1.405       .  A
C1094      H1099   1.062       .  S
C1095      C1096   1.404       .  A
C1095      O1100   1.372       .  S
C1096      C1097   1.400       .  A
C1097      C1098   1.405       .  A
C1097      H1101   1.081       .  S
C1098      O1102   1.374   1_545  S
O1100      H1104   0.991       .  S
O1102      H1103   0.990       .  S
C1105      C1106   1.410       .  A
C1105      C1110   1.387       .  A
C1106      C1107   1.425       .  A
C1106      H1111   1.082       .  S
C1107      C1108   1.432       .  A
C1107      O1112   1.373       .  S
C1108      C1109   1.404       .  A
C1109      C1110   1.376       .  A
C1109      H1113   1.082       .  S
C1110      O1114   1.366       .  S
O1112      H1116   0.992       .  S
O1114      H1115   0.978   1_565  S
C1117      C1118   1.411       .  A
C1117      C1122   1.425       .  A
C1118      C1119   1.408       .  A
C1118      H1123   1.085       .  S
C1119      C1120   1.410       .  A
C1119      O1124   1.378       .  S
C1120      C1121   1.394       .  A
C1121      C1122   1.393       .  A
C1121      H1125   1.084       .  S
C1122      O1126   1.363       .  S
O1124      H1128   0.993       .  S
O1126      H1127   0.993       .  S
C1129      C1130   1.414       .  A
C1129      C1134   1.419       .  A
C1130      C1131   1.390       .  A
C1130      H1135   1.077       .  S
C1131      C1132   1.398       .  A
C1131      O1136   1.377       .  S
C1132      C1133   1.417       .  A
C1133      C1134   1.418       .  A
C1133      H1137   1.074       .  S
C1134      O1138   1.368       .  S
O1136      H1140   0.989       .  S
O1138      H1139   0.991       .  S
C1141      C1142   1.410       .  A
C1141      C1146   1.419       .  A
C1142      C1143   1.387       .  A
C1142      H1147   1.067       .  S
C1143      C1144   1.396       .  A
C1143      O1148   1.382       .  S
C1144      C1145   1.414       .  A
C1145      C1146   1.416       .  A
C1145      H1149   1.081       .  S
C1146      O1150   1.370       .  S
O1148      H1152   0.992       .  S
O1150      H1151   0.992       .  S
C1153      C1154   1.393       .  A
C1153      C1158   1.418       .  A
C1154      C1155   1.392       .  A
C1154      H1159   1.080       .  S
C1155      C1156   1.404       .  A
C1155      O1160   1.377       .  S
C1156      C1157   1.414       .  A
C1157      C1158   1.416       .  A
C1157      H1161   1.082       .  S
C1158      O1162   1.371       .  S
O1160      H1164   0.991       .  S
O1162      H1163   0.991       .  S
C1165      C1166   1.404       .  A
C1165      C1170   1.423       .  A
C1166      C1167   1.377       .  A
C1166      H1171   1.081   1_554  S
C1167      C1168   1.406       .  A
C1167      O1172   1.374       .  S
C1168      C1169   1.415       .  A
C1169      C1170   1.426       .  A
C1169      H1173   1.082       .  S
C1170      O1174   1.372       .  S
O1172      H1176   0.992       .  S
O1174      H1175   0.992       .  S
C1177      C1178   1.410       .  A
C1177      C1182   1.422       .  A
C1178      C1179   1.405       .  A
C1178      H1183   1.085       .  S
C1179      C1180   1.408       .  A
C1179      O1184   1.376       .  S
C1180      C1181   1.397       .  A
C1181      C1182   1.398       .  A
C1181      H1185   1.084       .  S
C1182      O1186   1.364       .  S
O1184      H1188   0.993       .  S
O1186      H1187   0.993       .  S
C1189      C1190   1.407       .  A
C1189      C1194   1.412       .  A
C1190      C1191   1.393       .  A
C1190      H1195   1.076       .  S
C1191      C1192   1.409       .  A
C1191      O1196   1.380       .  S
C1192      C1193   1.412       .  A
C1193      C1194   1.413       .  A
C1193      H1197   1.079       .  S
C1194      O1198   1.371       .  S
O1196      H1200   0.993       .  S
O1198      H1199   0.991       .  S
C1201      C1202   1.391       .  A
C1201      C1206   1.402       .  A
C1202      C1203   1.403       .  A
C1202      H1207   1.084       .  S
C1203      C1204   1.430       .  A
C1203      O1208   1.357       .  S
C1204      C1205   1.416       .  A
C1205      C1206   1.399       .  A
C1205      H1209   1.083       .  S
C1206      O1210   1.371       .  S
O1208      H1212   0.993       .  S
O1210      H1211   0.992       .  S
C1213      C1214   1.418       .  A
C1213      C1218   1.404       .  A
C1214      C1215   1.426       .  A
C1214      H1219   1.080       .  S
C1215      C1216   1.420       .  A
C1215      O1220   1.373       .  S
C1216      C1217   1.404       .  A
C1217      C1218   1.377       .  A
C1217      H1221   1.079   1_554  S
C1218      O1222   1.371       .  S
O1220      H1224   0.992       .  S
O1222      H1223   0.991       .  S
C1225      C1226   1.416       .  A
C1225      C1230   1.425       .  A
C1226      C1227   1.410       .  A
C1226      H1231   1.084       .  S
C1227      C1228   1.407       .  A
C1227      O1232   1.371       .  S
C1228      C1229   1.389       .  A
C1229      C1230   1.390       .  A
C1229      H1233   1.085       .  S
C1230      O1234   1.363       .  S
O1232      H1236   0.991       .  S
O1234      H1235   0.994       .  S
C1237      C1238   1.419       .  A
C1237      C1242   1.432       .  A
C1238      C1239   1.421       .  A
C1238      H1243   1.074       .  S
C1239      C1240   1.412       .  A
C1239      O1244   1.370       .  S
C1240      C1241   1.377       .  A
C1241      C1242   1.375       .  A
C1241      H1245   1.087       .  S
C1242      O1246   1.360   1_554  S
O1244      H1248   0.992       .  S
O1246      H1247   0.990       .  S
C1249      C1250   1.411       .  A
C1249      C1254   1.407       .  A
C1250      C1251   1.418       .  A
C1250      H1255   1.083       .  S
C1251      C1252   1.422       .  A
C1251      O1256   1.370       .  S
C1252      C1253   1.398       .  A
C1253      C1254   1.386       .  A
C1253      H1257   1.084       .  S
C1254      O1258   1.376       .  S
O1256      H1260   0.991       .  S
O1258      H1259   0.991       .  S
C1261      C1262   1.420       .  A
C1261      C1266   1.431       .  A
C1262      C1263   1.378       .  A
C1262      H1267   1.075       .  S
C1263      C1264   1.397       .  A
C1263      O1268   1.374       .  S
C1264      C1265   1.401       .  A
C1265      C1266   1.413       .  A
C1265      H1269   1.083       .  S
C1266      O1270   1.366       .  S
O1268      H1272   0.991       .  S
O1270      H1271   0.992       .  S
C1273      C1274   1.398       .  A
C1273      C1278   1.403       .  A
C1274      C1275   1.396       .  A
C1274      H1279   1.082       .  S
C1275      C1276   1.417       .  A
C1275      O1280   1.372       .  S
C1276      C1277   1.412       .  A
C1277      C1278   1.401       .  A
C1277      H1281   1.077       .  S
C1278      O1282   1.367       .  S
O1280      H1284   0.991       .  S
O1282      H1283   0.992       .  S
C1285      C1286   1.422       .  A
C1285      C1290   1.422       .  A
C1286      C1287   1.380       .  A
C1286      H1291   1.073       .  S
C1287      C1288   1.392       .  A
C1287      O1292   1.375       .  S
C1288      C1289   1.406       .  A
C1289      C1290   1.424       .  A
C1289      H1293   1.083       .  S
C1290      O1294   1.375       .  S
O1292      H1296   0.993       .  S
O1294      H1295   0.992       .  S
C1297      C1298   1.410       .  A
C1297      C1302   1.424       .  A
C1298      C1299   1.396       .  A
C1298      H1303   1.084       .  S
C1299      C1300   1.405       .  A
C1299      O1304   1.374       .  S
C1300      C1301   1.399       .  A
C1301      C1302   1.405       .  A
C1301      H1305   1.084       .  S
C1302      O1306   1.369       .  S
O1304      H1308   0.992       .  S
O1306      H1307   0.992       .  S
C1309      C1310   1.407       .  A
C1309      C1314   1.421       .  A
C1310      C1311   1.385       .  A
C1310      H1315   1.074       .  S
C1311      C1312   1.396       .  A
C1311      O1316   1.374       .  S
C1312      C1313   1.400       .  A
C1313      C1314   1.408       .  A
C1313      H1317   1.084       .  S
C1314      O1318   1.367       .  S
O1316      H1320   0.992       .  S
O1318      H1319   0.993       .  S
C1321      C1322   1.405       .  A
C1321      C1326   1.404       .  A
C1322      C1323   1.405       .  A
C1322      H1327   1.083       .  S
C1323      C1324   1.410       .  A
C1323      O1328   1.376       .  S
C1324      C1325   1.410       .  A
C1325      C1326   1.394       .  A
C1325      H1329   1.080       .  S
C1326      O1330   1.377       .  S
O1328      H1332   0.992       .  S
O1330      H1331   0.993       .  S
C1333      C1334   1.406       .  A
C1333      C1338   1.404       .  A
C1334      C1335   1.397       .  A
C1334      H1339   1.069       .  S
C1335      C1336   1.406       .  A
C1335      O1340   1.371       .  S
C1336      C1337   1.399       .  A
C1337      C1338   1.394       .  A
C1337      H1341   1.067       .  S
C1338      O1342   1.373       .  S
O1340      H1344   0.992       .  S
O1342      H1343   0.993       .  S
C1345      C1346   1.408       .  A
C1345      C1350   1.415       .  A
C1346      C1347   1.408       .  A
C1346      H1351   1.083       .  S
C1347      C1348   1.410       .  A
C1347      O1352   1.370       .  S
C1348      C1349   1.390       .  A
C1349      C1350   1.387       .  A
C1349      H1353   1.082       .  S
C1350      O1354   1.372       .  S
O1352      H1356   0.992       .  S
O1354      H1355   0.993       .  S
C1357      C1358   1.404       .  A
C1357      C1362   1.416       .  A
C1358      C1359   1.390       .  A
C1358      H1363   1.077       .  S
C1359      C1360   1.407       .  A
C1359      O1364   1.370       .  S
C1360      C1361   1.403       .  A
C1361      C1362   1.409       .  A
C1361      H1365   1.083       .  S
C1362      O1366   1.373       .  S
O1364      H1368   0.992       .  S
O1366      H1367   0.993       .  S
C1369      C1370   1.410       .  A
C1369      C1374   1.407       .  A
C1370      C1371   1.412       .  A
C1370      H1375   1.079       .  S
C1371      C1372   1.414       .  A
C1371      O1376   1.371       .  S
C1372      C1373   1.410       .  A
C1373      C1374   1.396       .  A
C1373      H1377   1.078       .  S
C1374      O1378   1.375       .  S
O1376      H1380   0.992       .  S
O1378      H1379   0.992       .  S
C1381      C1382   1.421       .  A
C1381      C1386   1.421       .  A
C1382      C1383   1.407       .  A
C1382      H1387   1.061       .  S
C1383      C1384   1.399       .  A
C1383      O1388   1.371       .  S
C1384      C1385   1.405       .  A
C1385      C1386   1.398       .  A
C1385      H1389   1.084       .  S
C1386      O1390   1.372       .  S
O1388      H1392   0.992       .  S
O1390      H1391   0.993       .  S
C1393      C1394   1.410       .  A
C1393      C1398   1.402       .  A
C1394      C1395   1.428       .  A
C1394      H1399   1.083       .  S
C1395      C1396   1.420       .  A
C1395      O1400   1.376       .  S
C1396      C1397   1.415       .  A
C1397      C1398   1.393       .  A
C1397      H1401   1.080       .  S
C1398      O1402   1.373       .  S
O1400      H1404   0.992       .  S
O1402      H1403   0.992       .  S
C1405      C1406   1.419       .  A
C1405      C1410   1.420       .  A
C1406      C1407   1.418       .  A
C1406      H1411   1.079       .  S
C1407      C1408   1.411       .  A
C1407      O1412   1.371       .  S
C1408      C1409   1.389       .  A
C1409      C1410   1.371       .  A
C1409      H1413   1.083       .  S
C1410      O1414   1.365       .  S
O1412      H1416   0.992       .  S
O1414      H1415   0.993       .  S
C1417      C1418   1.402       .  A
C1417      C1422   1.408       .  A
C1418      C1419   1.399       .  A
C1418      H1423   1.080       .  S
C1419      C1420   1.411       .  A
C1419      O1424   1.371       .  S
C1420      C1421   1.412       .  A
C1421      C1422   1.406       .  A
C1421      H1425   1.079       .  S
C1422      O1426   1.373       .  S
O1424      H1428   0.991       .  S
O1426      H1427   0.992       .  S
C1429      C1430   1.396       .  A
C1429      C1434   1.396       .  A
C1430      C1431   1.405       .  A
C1430      H1435   1.083       .  S
C1431      C1432   1.426       .  A
C1431      O1436   1.364       .  S
C1432      C1433   1.417       .  A
C1433      C1434   1.384       .  A
C1433      H1437   1.076       .  S
C1434      O1438   1.374       .  S
O1436      H1440   0.992       .  S
O1438      H1439   0.992       .  S
C1441      C1442   1.408       .  A
C1441      C1446   1.411       .  A
C1442      C1443   1.403       .  A
C1442      H1447   1.082       .  S
C1443      C1444   1.411       .  A
C1443      O1448   1.371       .  S
C1444      C1445   1.400       .  A
C1445      C1446   1.392       .  A
C1445      H1449   1.084       .  S
C1446      O1450   1.371       .  S
O1448      H1452   0.991       .  S
O1450      H1451   0.992       .  S
C1453      C1454   1.419       .  A
C1453      C1458   1.403       .  A
C1454      C1455   1.410       .  A
C1454      H1459   1.065       .  S
C1455      C1456   1.401       .  A
C1455      O1460   1.371       .  S
C1456      C1457   1.394       .  A
C1457      C1458   1.395       .  A
C1457      H1461   1.083       .  S
C1458      O1462   1.361       .  S
O1460      H1464   0.992       .  S
O1462      H1463   0.982       .  S
C1465      C1466   1.411       .  A
C1465      C1470   1.410       .  A
C1466      C1467   1.406       .  A
C1466      H1471   1.083       .  S
C1467      C1468   1.406       .  A
C1467      O1472   1.371       .  S
C1468      C1469   1.396       .  A
C1469      C1470   1.393       .  A
C1469      H1473   1.076       .  S
C1470      O1474   1.370       .  S
O1472      H1476   0.992       .  S
O1474      H1475   0.993       .  S
C1477      C1478   1.387       .  A
C1477      C1482   1.400       .  A
C1478      C1479   1.385       .  A
C1478      H1483   1.082       .  S
C1479      C1480   1.420       .  A
C1479      O1484   1.365       .  S
C1480      C1481   1.419       .  A
C1481      C1482   1.406       .  A
C1481      H1485   1.062       .  S
C1482      O1486   1.371       .  S
O1484      H1488   0.993       .  S
O1486      H1487   0.992       .  S
C1489      C1490   1.398       .  A
C1489      C1494   1.404       .  A
C1490      C1491   1.390       .  A
C1490      H1495   1.084       .  S
C1491      C1492   1.412       .  A
C1491      O1496   1.367       .  S
C1492      C1493   1.410       .  A
C1493      C1494   1.399       .  A
C1493      H1497   1.081       .  S
C1494      O1498   1.373       .  S
O1496      H1500   0.992       .  S
O1498      H1499   0.991       .  S
C1501      C1502   1.416       .  A
C1501      C1506   1.438       .  A
C1502      C1503   1.411       .  A
C1502      H1507   1.070       .  S
C1503      C1504   1.403       .  A
C1503      O1508   1.371       .  S
C1504      C1505   1.383       .  A
C1505      C1506   1.386       .  A
C1505      H1509   1.085       .  S
C1506      O1510   1.368       .  S
O1508      H1512   0.991       .  S
O1510      H1511   0.993       .  S
C1513      C1514   1.411       .  A
C1513      C1518   1.420       .  A
C1514      C1515   1.404       .  A
C1514      H1519   1.084       .  S
C1515      C1516   1.406       .  A
C1515      O1520   1.375       .  S
C1516      C1517   1.398       .  A
C1517      C1518   1.403       .  A
C1517      H1521   1.084       .  S
C1518      O1522   1.362       .  S
O1520      H1524   0.992       .  S
O1522      H1523   0.993       .  S
C1525      C1526   1.404       .  A
C1525      C1530   1.406       .  A
C1526      C1527   1.409       .  A
C1526      H1531   1.079       .  S
C1527      C1528   1.411       .  A
C1527      O1532   1.376       .  S
C1528      C1529   1.409       .  A
C1529      C1530   1.392       .  A
C1529      H1533   1.080       .  S
C1530      O1534   1.374       .  S
O1532      H1536   0.992       .  S
O1534      H1535   0.992       .  S
C1537      C1538   1.407       .  A
C1537      C1542   1.407       .  A
C1538      C1539   1.407       .  A
C1538      H1543   1.081       .  S
C1539      C1540   1.412       .  A
C1539      O1544   1.372       .  S
C1540      C1541   1.397       .  A
C1541      C1542   1.388       .  A
C1541      H1545   1.077       .  S
C1542      O1546   1.369       .  S
O1544      H1548   0.990       .  S
O1546      H1547   0.992       .  S
C1549      C1550   1.408       .  A
C1549      C1554   1.417       .  A
C1550      C1551   1.404       .  A
C1550      H1555   1.084       .  S
C1551      C1552   1.416       .  A
C1551      O1556   1.368       .  S
C1552      C1553   1.414       .  A
C1553      C1554   1.414       .  A
C1553      H1557   1.084       .  S
C1554      O1558   1.373       .  S
O1556      H1560   0.992       .  S
O1558      H1559   0.992       .  S
C1561      C1562   1.412       .  A
C1561      C1566   1.416       .  A
C1562      C1563   1.411       .  A
C1562      H1567   1.083       .  S
C1563      C1564   1.417       .  A
C1563      O1568   1.370       .  S
C1564      C1565   1.409       .  A
C1565      C1566   1.409       .  A
C1565      H1569   1.081       .  S
C1566      O1570   1.374       .  S
O1568      H1572   0.991       .  S
O1570      H1571   0.992   1_545  S
C1573      C1574   1.422       .  A
C1573      C1578   1.413   1_545  A
C1574      C1575   1.422       .  A
C1574      H1579   1.077       .  S
C1575      C1576   1.416       .  A
C1575      O1580   1.372       .  S
C1576      C1577   1.384       .  A
C1577      C1578   1.378   1_545  A
C1577      H1581   1.085       .  S
C1578      O1582   1.366       .  S
O1580      H1584   0.992       .  S
O1582      H1583   0.988       .  S
C1585      C1586   1.424       .  A
C1585      C1590   1.411       .  A
C1586      C1587   1.422       .  A
C1586      H1591   1.078       .  S
C1587      C1588   1.413       .  A
C1587      O1592   1.372       .  S
C1588      C1589   1.384       .  A
C1589      C1590   1.373       .  A
C1589      H1593   1.085       .  S
C1590      O1594   1.365       .  S
O1592      H1596   0.992       .  S
O1594      H1595   0.988       .  S
C1597      C1598   1.385       .  A
C1597      C1602   1.428       .  A
C1598      C1599   1.379       .  A
C1598      H1603   1.085       .  S
C1599      C1600   1.411       .  A
C1599      O1604   1.360   1_455  S
C1600      C1601   1.423       .  A
C1601      C1602   1.437       .  A
C1601      H1605   1.079       .  S
C1602      O1606   1.370       .  S
O1604      H1608   0.993       .  S
O1606      H1607   0.992       .  S
C1609      C1610   1.405       .  A
C1609      C1614   1.416       .  A
C1610      C1611   1.385       .  A
C1610      H1615   1.073       .  S
C1611      C1612   1.400       .  A
C1611      O1616   1.373       .  S
C1612      C1613   1.412       .  A
C1613      C1614   1.409       .  A
C1613      H1617   1.083       .  S
C1614      O1618   1.371       .  S
O1616      H1620   0.991       .  S
O1618      H1619   0.991       .  S
C1621      C1622   1.412       .  A
C1621      C1626   1.427       .  A
C1622      C1623   1.414       .  A
C1622      H1627   1.075       .  S
C1623      C1624   1.415       .  A
C1623      O1628   1.374       .  S
C1624      C1625   1.383       .  A
C1625      C1626   1.384       .  A
C1625      H1629   1.087       .  S
C1626      O1630   1.374   1_455  S
O1628      H1632   0.989       .  S
O1630      H1631   0.993       .  S
C1633      C1634   1.413       .  A
C1633      C1638   1.405       .  A
C1634      C1635   1.401       .  A
C1634      H1639   1.060       .  S
C1635      C1636   1.404       .  A
C1635      O1640   1.372       .  S
C1636      C1637   1.412       .  A
C1637      C1638   1.396       .  A
C1637      H1641   1.078       .  S
C1638      O1642   1.368       .  S
O1640      H1644   0.991       .  S
O1642      H1643   0.991       .  S
C1645      C1646   1.413       .  A
C1645      C1650   1.404       .  A
C1646      C1647   1.427       .  A
C1646      H1651   1.081       .  S
C1647      C1648   1.429       .  A
C1647      O1652   1.373       .  S
C1648      C1649   1.399       .  A
C1649      C1650   1.377       .  A
C1649      H1653   1.084       .  S
C1650      O1654   1.365   1_556  S
O1652      H1656   0.992       .  S
O1654      H1655   0.992       .  S
C1657      C1658   1.413       .  A
C1657      C1662   1.409       .  A
C1658      C1659   1.406       .  A
C1658      H1663   1.080       .  S
C1659      C1660   1.414       .  A
C1659      O1664   1.370       .  S
C1660      C1661   1.396       .  A
C1661      C1662   1.388       .  A
C1661      H1665   1.085       .  S
C1662      O1666   1.373       .  S
O1664      H1668   0.992       .  S
O1666      H1667   0.992       .  S
C1669      C1670   1.417       .  A
C1669      C1674   1.417       .  A
C1670      C1671   1.396       .  A
C1670      H1675   1.055       .  S
C1671      C1672   1.397       .  A
C1671      O1676   1.376       .  S
C1672      C1673   1.406       .  A
C1673      C1674   1.405       .  A
C1673      H1677   1.083       .  S
C1674      O1678   1.371       .  S
O1676      H1680   0.992       .  S
O1678      H1679   0.991       .  S
C1681      C1682   1.417       .  A
C1681      C1686   1.406       .  A
C1682      C1683   1.412       .  A
C1682      H1687   1.083       .  S
C1683      C1684   1.412       .  A
C1683      O1688   1.371       .  S
C1684      C1685   1.403       .  A
C1685      C1686   1.400       .  A
C1685      H1689   1.074       .  S
C1686      O1690   1.374       .  S
O1688      H1692   0.992       .  S
O1690      H1691   0.993       .  S
C1693      C1694   1.410       .  A
C1693      C1698   1.407       .  A
C1694      C1695   1.403       .  A
C1694      H1699   1.081       .  S
C1695      C1696   1.408       .  A
C1695      O1700   1.372       .  S
C1696      C1697   1.400       .  A
C1697      C1698   1.392       .  A
C1697      H1701   1.074       .  S
C1698      O1702   1.372       .  S
O1700      H1704   0.992       .  S
O1702      H1703   0.991       .  S
C1705      C1706   1.399       .  A
C1705      C1710   1.401       .  A
C1706      C1707   1.395       .  A
C1706      H1711   1.084       .  S
C1707      C1708   1.416       .  A
C1707      O1712   1.369       .  S
C1708      C1709   1.409       .  A
C1709      C1710   1.397       .  A
C1709      H1713   1.084       .  S
C1710      O1714   1.372       .  S
O1712      H1716   0.992       .  S
O1714      H1715   0.992       .  S
C1717      C1718   1.384       .  A
C1717      C1722   1.401       .  A
C1718      C1719   1.377       .  A
C1718      H1723   1.085       .  S
C1719      C1720   1.436       .  A
C1719      O1724   1.367       .  S
C1720      C1721   1.423       .  A
C1721      C1722   1.414       .  A
C1721      H1725   1.070       .  S
C1722      O1726   1.370       .  S
O1724      H1728   0.991       .  S
O1726      H1727   0.992       .  S
C1729      C1730   1.416       .  A
C1729      C1734   1.427       .  A
C1730      C1731   1.383       .  A
C1730      H1735   1.076       .  S
C1731      C1732   1.399       .  A
C1731      O1736   1.374       .  S
C1732      C1733   1.401       .  A
C1733      C1734   1.410       .  A
C1733      H1737   1.083       .  S
C1734      O1738   1.368       .  S
O1736      H1740   0.993       .  S
O1738      H1739   0.992       .  S
C1741      C1742   1.407       .  A
C1741      C1746   1.413       .  A
C1742      C1743   1.394       .  A
C1742      H1747   1.072       .  S
C1743      C1744   1.405       .  A
C1743      O1748   1.372       .  S
C1744      C1745   1.409       .  A
C1745      C1746   1.406       .  A
C1745      H1749   1.084       .  S
C1746      O1750   1.372       .  S
O1748      H1752   0.992       .  S
O1750      H1751   0.992       .  S
C1753      C1754   1.400       .  A
C1753      C1758   1.403       .  A
C1754      C1755   1.398       .  A
C1754      H1759   1.080       .  S
C1755      C1756   1.413       .  A
C1755      O1760   1.371       .  S
C1756      C1757   1.408       .  A
C1757      C1758   1.399       .  A
C1757      H1761   1.066       .  S
C1758      O1762   1.374       .  S
O1760      H1764   0.991       .  S
O1762      H1763   0.992       .  S
C1765      C1766   1.407       .  A
C1765      C1770   1.411       .  A
C1766      C1767   1.396       .  A
C1766      H1771   1.084       .  S
C1767      C1768   1.405       .  A
C1767      O1772   1.369       .  S
C1768      C1769   1.404       .  A
C1769      C1770   1.400       .  A
C1769      H1773   1.083       .  S
C1770      O1774   1.373       .  S
O1772      H1776   0.992       .  S
O1774      H1775   0.990       .  S
C1777      C1778   1.399       .  A
C1777      C1782   1.393       .  A
C1778      C1779   1.409       .  A
C1778      H1783   1.083       .  S
C1779      C1780   1.430       .  A
C1779      O1784   1.363       .  S
C1780      C1781   1.423       .  A
C1781      C1782   1.383       .  A
C1781      H1785   1.075       .  S
C1782      O1786   1.376       .  S
O1784      H1788   0.992       .  S
O1786      H1787   0.992       .  S
C1789      C1790   1.401       .  A
C1789      C1794   1.406       .  A
C1790      C1791   1.397       .  A
C1790      H1795   1.077       .  S
C1791      C1792   1.407       .  A
C1791      O1796   1.372       .  S
C1792      C1793   1.406       .  A
C1793      C1794   1.395       .  A
C1793      H1797   1.072       .  S
C1794      O1798   1.371       .  S
O1796      H1800   0.992       .  S
O1798      H1799   0.991       .  S
C1801      C1802   1.404       .  A
C1801      C1806   1.404       .  A
C1802      C1803   1.398       .  A
C1802      H1807   1.081       .  S
C1803      C1804   1.409       .  A
C1803      O1808   1.371       .  S
C1804      C1805   1.409       .  A
C1805      C1806   1.396       .  A
C1805      H1809   1.080       .  S
C1806      O1810   1.372       .  S
O1808      H1812   0.992       .  S
O1810      H1811   0.992       .  S
C1813      C1814   1.388       .  A
C1813      C1818   1.401       .  A
C1814      C1815   1.397       .  A
C1814      H1819   1.084       .  S
C1815      C1816   1.424       .  A
C1815      O1820   1.357       .  S
C1816      C1817   1.412       .  A
C1817      C1818   1.392       .  A
C1817      H1821   1.075       .  S
C1818      O1822   1.373       .  S
O1820      H1824   0.993       .  S
O1822      H1823   0.992       .  S
C1825      C1826   1.383       .  A
C1825      C1830   1.400       .  A
C1826      C1827   1.377       .  A
C1826      H1831   1.085       .  S
C1827      C1828   1.422       .  A
C1827      O1832   1.357       .  S
C1828      C1829   1.421       .  A
C1829      C1830   1.411       .  A
C1829      H1833   1.067       .  S
C1830      O1834   1.373       .  S
O1832      H1836   0.989       .  S
O1834      H1835   0.992       .  S
