geometry optimzed in LAMMPS
_audit_creation_date              2020-11-30 
_audit_creation_method            'lammps2cif' 
_symmetry_space_group_name_H-M    'P1' 
_symmetry_Int_Tables_number       1 
_symmetry_cell_setting            triclinic 
loop_ 
_symmetry_equiv_pos_as_xyz 
  x,y,z 
_cell_length_a                    49.75322876 
_cell_length_b                    49.518384895440306 
_cell_length_c                    49.80058401519993 
_cell_angle_alpha                 90.53327740413789 
_cell_angle_beta                  89.91211291757301 
_cell_angle_gamma                 90.61491042616144 
loop_ 
_atom_site_label 
_atom_site_type_symbol 
_atom_site_fract_x 
_atom_site_fract_y 
_atom_site_fract_z 
_atom_site_charge 
O1          O  0.23034589  0.68987309  0.71927052    -0.79100
O2          O  0.21586608  0.79608223  0.74139206    -0.79100
O3          O  0.24845764  0.73507752  0.80229774    -0.79100
O4          O  0.24855952  0.76523373  0.68527296    -0.79100
O5          O  0.21583041  0.75814942  0.78466829    -0.79200
O6          O  0.21775773  0.74338772  0.70933792    -0.79100
O7          O  0.24926555  0.80978814  0.71525250    -0.79100
O8          O  0.23472170  0.70328410  0.76184363    -0.79100
C9          C  0.22437083  0.68712185  0.74385692     1.10600
C10         C  0.22450881  0.81060711  0.72217008     1.10500
C11         C  0.22420491  0.74257813  0.80298278     1.10600
C12         C  0.22471653  0.75602252  0.68823071     1.10500
O13         O  0.26721842  0.72084610  0.69341117    -0.79100
O14         O  0.26903759  0.77981998  0.79894885    -0.79200
O15         O  0.28429470  0.69798696  0.78393928    -0.79100
O16         O  0.30045801  0.79649033  0.73882319    -0.79100
O17         O  0.26698300  0.81635156  0.76046214    -0.79100
O18         O  0.28024364  0.70026184  0.73945453    -0.79100
O19         O  0.30053913  0.74813244  0.70427585    -0.79100
O20         O  0.29902518  0.75201983  0.78122277    -0.79100
Co21       Co  0.24694429  0.72369945  0.72742731     1.51500
Co22       Co  0.24190258  0.78559346  0.76970422     1.51700
Co23       Co  0.26872458  0.72885757  0.76837673     1.51600
Co24       Co  0.27483847  0.77850063  0.71304653     1.51500
O25         O  0.25824142  0.75828897  0.74411672    -1.41000
C26         C  0.29156759  0.72777109  0.69083777     1.10500
C27         C  0.29296040  0.77059418  0.79796720     1.10600
C28         C  0.29001024  0.68910754  0.76067800     1.10600
C29         C  0.29166270  0.81572986  0.75358805     1.10500
O30         O  0.72379516  0.23515875  0.67850233    -0.79100
O31         O  0.78827924  0.23079875  0.80000652    -0.79100
O32         O  0.79296940  0.20793643  0.72891108    -0.79100
O33         O  0.71462113  0.20922096  0.74449582    -0.79100
O34         O  0.81475899  0.23258383  0.75538543    -0.79200
O35         O  0.68988637  0.23732147  0.72313720    -0.79100
O36         O  0.75544283  0.20814799  0.78115375    -0.79100
O37         O  0.75321418  0.20739800  0.69483121    -0.79100
C38         C  0.73584330  0.21245608  0.67741659     1.10600
C39         C  0.77091926  0.21170426  0.80141963     1.10500
C40         C  0.81544398  0.21400411  0.73825441     1.10600
C41         C  0.69185212  0.21551840  0.73627861     1.10500
O42         O  0.71512683  0.29009171  0.73782184    -0.79100
O43         O  0.79472845  0.27726318  0.75715212    -0.79200
O44         O  0.76887737  0.25974382  0.67381286    -0.79100
O45         O  0.74220246  0.26468755  0.79756982    -0.79100
O46         O  0.77893926  0.27897617  0.77844306    -0.79100
O47         O  0.74607849  0.28876074  0.69613670    -0.79100
O48         O  0.69725352  0.26243383  0.76583041    -0.79100
O49         O  0.80608300  0.26583593  0.71497716    -0.79100
Co50       Co  0.72065493  0.26219544  0.71039702     1.51500
Co51       Co  0.77629664  0.24194166  0.76450231     1.51700
Co52       Co  0.77874219  0.23581174  0.70524685     1.51600
Co53       Co  0.72921741  0.23672340  0.76901527     1.51500
O54         O  0.75193375  0.24898623  0.73416946    -1.41000
C55         C  0.69718752  0.28529617  0.75463784     1.10500
C56         C  0.80786919  0.28198494  0.73532332     1.10600
C57         C  0.75690518  0.28214599  0.67459743     1.10600
C58         C  0.76213921  0.28118256  0.79747791     1.10500
O59         O  0.69702188  0.73911237  0.21833161    -0.79100
O60         O  0.80492980  0.76523479  0.25172374    -0.79100
O61         O  0.72239710  0.79048557  0.24333429    -0.79100
O62         O  0.76798670  0.68388616  0.24590879    -0.79100
O63         O  0.76378688  0.80116877  0.25111907    -0.79200
O64         O  0.74116449  0.69983988  0.21487326    -0.79100
O65         O  0.79252778  0.72647622  0.23703554    -0.79100
O66         O  0.68158619  0.76299020  0.25257036    -0.79100
C67         C  0.67933571  0.75518316  0.22814233     1.10600
C68         C  0.80898537  0.74558166  0.23629232     1.10500
C69         C  0.74207212  0.80564582  0.23903636     1.10600
C70         C  0.76004048  0.68395237  0.22171980     1.10500
O71         O  0.72434175  0.68078674  0.26709709    -0.79100
O72         O  0.74389716  0.77960751  0.30254971    -0.79200
O73         O  0.70406958  0.74106336  0.30227853    -0.79100
O74         O  0.80275807  0.70455872  0.28544413    -0.79100
O75         O  0.78682859  0.74236355  0.30251872    -0.79100
O76         O  0.68533497  0.71700287  0.27021515    -0.79100
O77         O  0.74847048  0.70123890  0.29823156    -0.79100
O78         O  0.70534512  0.79775013  0.29430154    -0.79100
Co79       Co  0.71436661  0.71160585  0.24285644     1.51500
Co80       Co  0.77200014  0.76947814  0.27504735     1.51700
Co81       Co  0.71636204  0.76602572  0.27327168     1.51600
Co82       Co  0.77054452  0.71697795  0.26868132     1.51500
O83         O  0.74210908  0.74054369  0.25631258    -1.41000
C84         C  0.73363765  0.68157962  0.29085887     1.10500
C85         C  0.72934398  0.80078467  0.30306161     1.10600
C86         C  0.68582670  0.72468736  0.29463985     1.10600
C87         C  0.80610372  0.72506737  0.30066602     1.10500
C88         C  0.50993757  0.98280288  0.01054428     0.03300
C89         C  0.53086191  0.00301690  0.01213217     0.03300
C90         C  0.53194789  0.02397455  0.99217697     0.03300
C91         C  0.51205015  0.02506828  0.97135896     0.03300
C92         C  0.48999305  0.00653544  0.97162187     0.03300
C93         C  0.48959561  0.98487049  0.99033487     0.03300
N94         N  0.68793153  0.99745635  0.14484908    -0.02400
C95         C  0.70978642  0.98098645  0.14627251     0.00200
C96         C  0.73201145  0.99573368  0.15485621    -0.22700
C97         C  0.72368211  0.02147681  0.15972484    -0.22900
C98         C  0.69654135  0.02190709  0.15432879     0.00100
H99         H  0.75106974  0.98788557  0.16136656     0.13800
H100        H  0.73516968  0.03694477  0.17026705     0.13900
N101        N  0.69044241  0.15304148  0.99720430    -0.02400
C102        C  0.69356861  0.16869930  0.01966460     0.00200
C103        C  0.71836411  0.18129900  0.01979751    -0.22700
C104        C  0.73110562  0.17349740  0.99675901    -0.22900
C105        C  0.71385619  0.15612068  0.98304915     0.00100
H106        H  0.72585591  0.19567166  0.03456819     0.13800
H107        H  0.75000637  0.18171733  0.98963080     0.13900
N108        N  0.33501122  0.00118712  0.84127404    -0.02400
C109        C  0.31188458  0.01572087  0.84059565     0.00200
C110        C  0.29360872  0.00334360  0.82341194    -0.22700
C111        C  0.30539758  0.98033305  0.81382019    -0.22900
C112        C  0.33061674  0.97926107  0.82521964     0.00100
H113        H  0.27457200  0.01119730  0.81679612     0.13800
H114        H  0.29674948  0.96611751  0.79952730     0.13900
N115        N  0.50728756  0.19366110  0.85856654    -0.02400
C116        C  0.48977912  0.21467469  0.86091546     0.00200
C117        C  0.50352848  0.23895330  0.86157510    -0.22700
C118        C  0.53018985  0.23312320  0.85868972    -0.22900
C119        C  0.53217855  0.20537970  0.85588296     0.00100
H120        H  0.49484650  0.25889124  0.86088422     0.13800
H121        H  0.54591013  0.24780988  0.85459306     0.13900
N122        N  0.50561119  0.86705366  0.17382579    -0.02400
C123        C  0.48984811  0.87270278  0.19560000     0.00200
C124        C  0.50610199  0.87602718  0.21804586    -0.22700
C125        C  0.53192754  0.87051231  0.21035883    -0.22900
C126        C  0.53109637  0.86460029  0.18328047     0.00100
H127        H  0.49933767  0.87785618  0.23865386     0.13800
H128        H  0.54870799  0.86752368  0.22376326     0.13900
N129        N  0.37299645  0.81858432  0.99484119    -0.02400
C130        C  0.36948307  0.80654155  0.01902104     0.00200
C131        C  0.36764002  0.77885453  0.01592050    -0.22700
C132        C  0.37023511  0.77355375  0.98902347    -0.22900
C133        C  0.37360628  0.79817434  0.97652578     0.00100
H134        H  0.36196759  0.76439709  0.03114395     0.13800
H135        H  0.36670755  0.75419826  0.97929365     0.13900
C136        C  0.96626338  0.48301064  0.99015006     0.03300
C137        C  0.98840089  0.48388621  0.97171310     0.03300
C138        C  0.00931456  0.50360790  0.97491922     0.03300
C139        C  0.00748376  0.52377695  0.99543844     0.03300
C140        C  0.98539975  0.52336633  0.01397629     0.03300
C141        C  0.96490446  0.50264021  0.01163755     0.03300
N142        N  0.15413657  0.66812004  0.99437343    -0.02400
C143        C  0.15708290  0.68883498  0.97661020     0.00200
C144        C  0.17044155  0.71045071  0.98862819    -0.22700
C145        C  0.17545072  0.70348307  0.01441879    -0.22900
C146        C  0.16540874  0.67768262  0.01759247     0.00100
H147        H  0.17675346  0.72914332  0.97930172     0.13800
H148        H  0.18669205  0.71536167  0.02898677     0.13900
N149        N  0.17466713  0.51069442  0.85747898    -0.02400
C150        C  0.19070306  0.53303925  0.85465324     0.00200
C151        C  0.21718814  0.52736563  0.86024234    -0.22700
C152        C  0.21798933  0.50062261  0.86623039    -0.22900
C153        C  0.19209887  0.49063392  0.86366981     0.00100
H154        H  0.23453434  0.54023355  0.85699872     0.13800
H155        H  0.23610933  0.48886177  0.86811807     0.13900
N156        N  0.99284598  0.64377314  0.18059112    -0.02400
C157        C  0.01548081  0.64216622  0.19603747     0.00200
C158        C  0.00918738  0.64444911  0.22289366    -0.22700
C159        C  0.98219720  0.64876562  0.22444928    -0.22900
C160        C  0.97245559  0.64886469  0.19846154     0.00100
H161        H  0.02326559  0.64620044  0.23939069     0.13800
H162        H  0.97166646  0.65497895  0.24243375     0.13900
N163        N  0.83105603  0.49426146  0.16709518    -0.02400
C164        C  0.82571462  0.47432923  0.18510788     0.00200
C165        C  0.80617700  0.48230299  0.20315827    -0.22700
C166        C  0.79854603  0.50753974  0.19595732    -0.22900
C167        C  0.81337877  0.51429554  0.17349389     0.00100
H168        H  0.79792829  0.47065588  0.21958657     0.13800
H169        H  0.78377725  0.51979140  0.20617364     0.13900
N170        N  0.99413237  0.36298942  0.80646668    -0.02400
C171        C  0.97735891  0.36146918  0.78473329     0.00200
C172        C  0.99054285  0.35034455  0.76288792    -0.22700
C173        C  0.01622185  0.34518795  0.77081545    -0.22900
C174        C  0.01813233  0.35335527  0.79728301     0.00100
H175        H  0.98173345  0.34471382  0.74374386     0.13800
H176        H  0.03160546  0.33540619  0.75892986     0.13900
N177        N  0.82091008  0.33926897  0.00331233    -0.02400
C178        C  0.80774335  0.33465517  0.02694298     0.00200
C179        C  0.78032367  0.33282938  0.02308683    -0.22700
C180        C  0.77604954  0.33591180  0.99624804    -0.22900
C181        C  0.80096662  0.33965307  0.98457803     0.00100
H182        H  0.76536059  0.32699044  0.03778575     0.13800
H183        H  0.75705942  0.33316875  0.98593570     0.13900
C184        C  0.50425081  0.47617801  0.53174881     0.03300
C185        C  0.48427823  0.49674590  0.53160990     0.03300
C186        C  0.48390423  0.51559393  0.51007735     0.03300
C187        C  0.50140284  0.51211330  0.48760517     0.03300
C188        C  0.52050101  0.49095630  0.48732105     0.03300
C189        C  0.52233643  0.47331586  0.50953849     0.03300
N190        N  0.51052359  0.33186147  0.67283104    -0.02400
C191        C  0.53384009  0.32107589  0.68190110     0.00200
C192        C  0.53180988  0.29336949  0.68387343    -0.22700
C193        C  0.50625429  0.28654609  0.67628580    -0.22900
C194        C  0.49356131  0.31031848  0.66997059     0.00100
H195        H  0.54693209  0.27979031  0.69130393     0.13800
H196        H  0.49705168  0.26670237  0.67773945     0.13900
N197        N  0.32839052  0.64183569  0.49374686    -0.02400
C198        C  0.30730568  0.64049043  0.47610262     0.00200
C199        C  0.28317916  0.64424779  0.48936411    -0.22700
C200        C  0.28906843  0.64916218  0.51563362    -0.22900
C201        C  0.31661093  0.64819002  0.51788264     0.00100
H202        H  0.26345664  0.64575134  0.48035732     0.13800
H203        H  0.27492045  0.65481521  0.53117850     0.13900
N204        N  0.63883730  0.48904626  0.32414832    -0.02400
C205        C  0.65011365  0.51027286  0.31099523     0.00200
C206        C  0.65517186  0.50344704  0.28454631    -0.22700
C207        C  0.64735934  0.47702211  0.28129373    -0.22900
C208        C  0.63770366  0.46838795  0.30582685     0.00100
H209        H  0.66489048  0.51595876  0.26960731     0.13800
H210        H  0.65057316  0.46468767  0.26354532     0.13900
N211        N  0.48916242  0.66982840  0.36418479    -0.02400
C212        C  0.46851617  0.67762306  0.34838652     0.00200
C213        C  0.47231487  0.70389089  0.34009333    -0.22700
C214        C  0.49649682  0.71234822  0.35017680    -0.22900
C215        C  0.50681568  0.69109080  0.36464287     0.00100
H216        H  0.45962012  0.71508349  0.32661826     0.13800
H217        H  0.50673263  0.73080256  0.34459108     0.13900
N218        N  0.36272714  0.49224731  0.69298252    -0.02400
C219        C  0.35301282  0.46707391  0.69885995     0.00200
C220        C  0.34116455  0.46717763  0.72391776    -0.22700
C221        C  0.34386403  0.49279234  0.73409216    -0.22900
C222        C  0.35750369  0.50791741  0.71513646     0.00100
H223        H  0.33044955  0.45059362  0.73326046     0.13800
H224        H  0.33503940  0.49999830  0.75262524     0.13900
N225        N  0.63390829  0.30489248  0.49682892    -0.02400
C226        C  0.64767227  0.29036587  0.51493811     0.00200
C227        C  0.64916297  0.26381528  0.50655474    -0.22700
C228        C  0.63632009  0.26226400  0.48215627    -0.22900
C229        C  0.62772138  0.28804681  0.47620113     0.00100
H230        H  0.66059662  0.24795832  0.51585655     0.13800
H231        H  0.63723553  0.24528406  0.46835015     0.13900
C232        C  0.98277810  0.99647253  0.46268458     0.03300
C233        C  0.00409142  0.97739501  0.46202120     0.03300
C234        C  0.02426727  0.97883967  0.48257584     0.03300
C235        C  0.02351657  0.99977725  0.50290651     0.03300
C236        C  0.00081389  0.01723090  0.50452437     0.03300
C237        C  0.98006150  0.01481991  0.48471139     0.03300
N238        N  0.00115662  0.18944097  0.61735338    -0.02400
C239        C  0.02241139  0.20716579  0.61890124     0.00200
C240        C  0.01366835  0.23250623  0.62639089    -0.22700
C241        C  0.98654836  0.23058877  0.63007990    -0.22900
C242        C  0.97917226  0.20403603  0.62521960     0.00100
H243        H  0.02598888  0.24969844  0.63217386     0.13800
H244        H  0.97415477  0.24605797  0.63910461     0.13900
N245        N  0.16618935  0.00282279  0.64787012    -0.02400
C246        C  0.17188924  0.98436384  0.66707711     0.00200
C247        C  0.19427217  0.99242941  0.68161572    -0.22700
C248        C  0.20264402  0.01648257  0.67138927    -0.22900
C249        C  0.18540052  0.02237730  0.65060241     0.00100
H250        H  0.20439395  0.98130211  0.69713262     0.13800
H251        H  0.21924482  0.02873624  0.67877246     0.13900
N252        N  0.14523517  0.81518028  0.49807113    -0.02400
C253        C  0.14194257  0.79336670  0.51454187     0.00200
C254        C  0.14881901  0.76982089  0.50117986    -0.22700
C255        C  0.15815974  0.77699897  0.47651463    -0.22900
C256        C  0.15674781  0.80471109  0.47525930     0.00100
H257        H  0.15100416  0.75000183  0.50980419     0.13800
H258        H  0.16783992  0.76373095  0.46215776     0.13900
N259        N  0.84984770  0.16489846  0.50941839    -0.02400
C260        C  0.85535238  0.18466550  0.49137257     0.00200
C261        C  0.85427231  0.20950913  0.50421051    -0.22700
C262        C  0.84685421  0.20492240  0.53039599    -0.22900
C263        C  0.84368672  0.17732527  0.53318888     0.00100
H264        H  0.85430162  0.22900635  0.49455822     0.13800
H265        H  0.84035413  0.22028368  0.54449649     0.13900
N266        N  0.85388443  0.98400373  0.30891431    -0.02400
C267        C  0.86223011  0.00176217  0.29000660     0.00200
C268        C  0.86312265  0.98907080  0.26517938    -0.22700
C269        C  0.85305207  0.96344523  0.26865353    -0.22900
C270        C  0.84579951  0.96144693  0.29541528     0.00100
H271        H  0.86610942  0.99868561  0.24596799     0.13800
H272        H  0.84765980  0.94950392  0.25264769     0.13900
N273        N  0.00373494  0.81505971  0.33808463    -0.02400
C274        C  0.98635326  0.79468700  0.33115902     0.00200
C275        C  0.99800949  0.77797640  0.31212930    -0.22700
C276        C  0.02311133  0.78822764  0.30698040    -0.22900
C277        C  0.02621829  0.81091201  0.32299105     0.00100
H278        H  0.98909348  0.76011563  0.30295365     0.13800
H279        H  0.03764518  0.78006123  0.29298633     0.13900
O280        O  0.24852497  0.21299631  0.70818574    -0.79100
O281        O  0.24780641  0.29079837  0.70883856    -0.79100
O282        O  0.18719862  0.22917541  0.74082253    -0.79100
O283        O  0.30552870  0.27549092  0.74651752    -0.79100
O284        O  0.20730211  0.25015429  0.70778017    -0.79200
O285        O  0.28952618  0.25386239  0.71140959    -0.79100
O286        O  0.26780946  0.31116011  0.74293759    -0.79100
O287        O  0.22486511  0.19406224  0.74039579    -0.79100
C288        C  0.23203642  0.19483807  0.71573739     1.10600
C289        C  0.26223677  0.30991970  0.71794314     1.10500
C290        C  0.18855925  0.23464105  0.71600521     1.10600
C291        C  0.30669096  0.27012743  0.72165976     1.10500
O292        O  0.30466156  0.23053598  0.76294548    -0.79100
O293        O  0.18749653  0.27361400  0.75774809    -0.79200
O294        O  0.24464358  0.21248731  0.79342396    -0.79100
O295        O  0.24376059  0.29277462  0.79332616    -0.79100
O296        O  0.22322278  0.31105330  0.75905801    -0.79100
O297        O  0.26746658  0.19419248  0.76026972    -0.79100
O298        O  0.28458517  0.25293503  0.79546482    -0.79100
O299        O  0.20345818  0.25235599  0.79268199    -0.79100
Co300      Co  0.27484558  0.22550066  0.73575834     1.51500
Co301      Co  0.21918394  0.27891148  0.73357561     1.51700
Co302      Co  0.21785936  0.22470823  0.76687708     1.51600
Co303      Co  0.27273168  0.28049022  0.76928677     1.51500
O304        O  0.24619568  0.25239560  0.75148409    -1.41000
C305        C  0.30341306  0.23754852  0.78754769     1.10500
C306        C  0.18579067  0.26747315  0.78243220     1.10600
C307        C  0.25945034  0.19376355  0.78458401     1.10600
C308        C  0.22917262  0.31123172  0.78395429     1.10500
O309        O  0.75538552  0.18209101  0.27000545    -0.79100
O310        O  0.75476209  0.29326737  0.22608343    -0.79100
O311        O  0.75478853  0.21588060  0.18647967    -0.79100
O312        O  0.78349409  0.23799511  0.29464018    -0.79100
O313        O  0.76709614  0.25297702  0.20369409    -0.79200
O314        O  0.74883368  0.21315163  0.30849106    -0.79100
O315        O  0.78677124  0.27909599  0.25288920    -0.79100
O316        O  0.76547158  0.18259850  0.22771816    -0.79100
C317        C  0.76965512  0.17366797  0.25083687     1.10600
C318        C  0.77865258  0.29554405  0.23515600     1.10500
C319        C  0.76939618  0.23635261  0.18521090     1.10600
C320        C  0.77340373  0.22062773  0.31083441     1.10500
O321        O  0.70055110  0.23800901  0.28624935    -0.79100
O322        O  0.71546853  0.26779551  0.19075934    -0.79200
O323        O  0.70870533  0.18240611  0.24285507    -0.79100
O324        O  0.73324102  0.29549573  0.26925653    -0.79100
O325        O  0.70295103  0.27370150  0.24496206    -0.79100
O326        O  0.70420149  0.18260440  0.28741624    -0.79100
O327        O  0.73264571  0.25909178  0.30810963    -0.79100
O328        O  0.70216532  0.22846999  0.20734289    -0.79100
Co329      Co  0.72737788  0.21065015  0.27447199     1.51500
Co330      Co  0.73357549  0.25907300  0.22369904     1.51700
Co331      Co  0.73444246  0.20640517  0.22015385     1.51600
Co332      Co  0.75912460  0.26559424  0.27898167     1.51500
O333        O  0.74693086  0.23608191  0.25149052    -1.41000
C334        C  0.70795562  0.25419691  0.30482901     1.10500
C335        C  0.70131502  0.24620241  0.18837919     1.10600
C336        C  0.69793845  0.17281475  0.26449189     1.10600
C337        C  0.70953337  0.29392960  0.25952801     1.10500
O338        O  0.29154421  0.70565477  0.24709377    -0.79100
O339        O  0.21498433  0.70780296  0.24378692    -0.79100
O340        O  0.25990478  0.72822931  0.29563159    -0.79100
O341        O  0.23652010  0.74101518  0.18236652    -0.79100
O342        O  0.21600813  0.71884636  0.29833312    -0.79200
O343        O  0.25680199  0.70644520  0.20088717    -0.79100
O344        O  0.19781733  0.73978131  0.21844946    -0.79100
O345        O  0.30427626  0.73884651  0.27410729    -0.79100
C346        C  0.30555691  0.71408577  0.26698250     1.10600
C347        C  0.19755793  0.71542318  0.22680603     1.10500
C348        C  0.23994350  0.71585981  0.30681099     1.10600
C349        C  0.24137519  0.71584048  0.18297356     1.10500
O350        O  0.28205083  0.75783980  0.18630337    -0.79100
O351        O  0.23520702  0.77033704  0.29371076    -0.79200
O352        O  0.29187689  0.78977952  0.25113152    -0.79100
O353        O  0.21508310  0.79190649  0.24059316    -0.79100
O354        O  0.19593278  0.75898057  0.26335687    -0.79100
O355        O  0.31309387  0.75701921  0.22944180    -0.79100
O356        O  0.25735672  0.79194033  0.20119525    -0.79100
O357        O  0.27732355  0.77896418  0.30612909    -0.79100
Co358      Co  0.28382252  0.73173075  0.21735361     1.51500
Co359      Co  0.22941455  0.73702776  0.26750869     1.51700
Co360      Co  0.27148404  0.76146251  0.27182116     1.51600
Co361      Co  0.22837915  0.76625182  0.21255588     1.51500
O362        O  0.25386557  0.74920728  0.23849963    -1.41000
C363        C  0.27434869  0.78241025  0.18458173     1.10500
C364        C  0.25204978  0.78084904  0.31060881     1.10600
C365        C  0.31168223  0.78169220  0.23666455     1.10600
C366        C  0.19608030  0.78336937  0.25545029     1.10500
C367        C  0.10004179  0.82149906  0.32493038    -0.13300
C368        C  0.10373082  0.83498132  0.30053068     0.17100
C369        C  0.08140113  0.84794395  0.28908544     0.03400
C370        C  0.05552499  0.84388256  0.29992917    -0.11800
C371        C  0.05149669  0.82710597  0.32219160    -0.02900
C372        C  0.07427413  0.81774616  0.33594499     0.02600
C373        C  0.12791436  0.82766608  0.28428619     0.09500
N374        N  0.08423439  0.86332470  0.26513158     0.65800
H375        H  0.03833939  0.85124469  0.28909523     0.18700
N376        N  0.07138881  0.80116011  0.35909114     0.76300
H377        H  0.11661268  0.81089559  0.33358292     0.10200
C378        C  0.15433076  0.83622857  0.29105448     0.03900
C379        C  0.17666305  0.82265255  0.28024285    -0.04800
C380        C  0.17315325  0.80074395  0.26260779    -0.23200
C381        C  0.14701994  0.79341281  0.25439587     0.13200
C382        C  0.12473179  0.80671295  0.26527981    -0.12300
N383        N  0.15902594  0.85851321  0.30885128     0.64900
H384        H  0.19673587  0.82852498  0.28650656     0.12700
N385        N  0.14293446  0.77200231  0.23534712     0.61500
H386        H  0.10471711  0.79963801  0.25993751     0.08900
O387        O  0.07750666  0.81089221  0.38180018    -0.40000
O388        O  0.06952830  0.77587045  0.35617316    -0.39100
O389        O  0.07812268  0.85259171  0.24286185    -0.39100
O390        O  0.08578377  0.88872621  0.26697719    -0.36900
O391        O  0.14893931  0.77568115  0.21101540    -0.37800
O392        O  0.13787296  0.74842009  0.24344692    -0.33900
O393        O  0.17275136  0.85476786  0.32971472    -0.35300
O394        O  0.15770004  0.88208785  0.29958543    -0.39600
C395        C  0.86149175  0.07689311  0.27594101    -0.13300
C396        C  0.83454344  0.08291690  0.28214655     0.17100
C397        C  0.81837752  0.06287197  0.29431861     0.03400
C398        C  0.82871630  0.03718868  0.29887474    -0.11800
C399        C  0.85506738  0.03072848  0.29148397    -0.02900
C400        C  0.87186514  0.05100193  0.28083994     0.02600
C401        C  0.82238486  0.10873208  0.27325443     0.09500
N402        N  0.79061264  0.06737201  0.29992516     0.65800
H403        H  0.81541311  0.02165928  0.30662468     0.18700
N404        N  0.89939336  0.04533150  0.27505614     0.76300
H405        H  0.87425853  0.09211960  0.26677431     0.10200
C406        C  0.81592517  0.12960468  0.29148267     0.03900
C407        C  0.80049855  0.15145903  0.28296477    -0.04800
C408        C  0.79052621  0.15291506  0.25657851    -0.23200
C409        C  0.79875651  0.13302527  0.23781808     0.13200
C410        C  0.81452105  0.11121178  0.24629519    -0.12300
N411        N  0.82411835  0.12875108  0.31896178     0.64900
H412        H  0.79561286  0.16683150  0.29728487     0.12700
N413        N  0.79003593  0.13354437  0.21053195     0.61500
H414        H  0.81948111  0.09546498  0.23206729     0.08900
O415        O  0.90617020  0.03861257  0.25152425    -0.40000
O416        O  0.91539761  0.04130070  0.29421294    -0.39100
O417        O  0.77334822  0.06003529  0.28274424    -0.39100
O418        O  0.78331279  0.07077334  0.32397714    -0.36900
O419        O  0.80593374  0.14232896  0.19279944    -0.37800
O420        O  0.77018918  0.11908284  0.20349564    -0.33900
O421        O  0.84399560  0.14297620  0.32637289    -0.35300
O422        O  0.80742877  0.12093782  0.33640598    -0.39600
C423        C  0.85429772  0.18674377  0.41451352    -0.13300
C424        C  0.82667761  0.19090251  0.41001671     0.17100
C425        C  0.80903475  0.18966933  0.43233801     0.03400
C426        C  0.81903449  0.18526777  0.45811777    -0.11800
C427        C  0.84659016  0.18272529  0.46284274    -0.02900
C428        C  0.86435874  0.18285526  0.44070353     0.02600
C429        C  0.81608487  0.19614519  0.38231627     0.09500
N430        N  0.78099375  0.19496050  0.42968556     0.65800
H431        H  0.80522864  0.18555263  0.47489918     0.18700
N432        N  0.89251811  0.17900061  0.44432861     0.76300
H433        H  0.86809381  0.18667947  0.39775945     0.10200
C434        C  0.82646614  0.21681787  0.36563186     0.03900
C435        C  0.81336284  0.22321367  0.34151982    -0.04800
C436        C  0.78930100  0.21017672  0.33391761    -0.23200
C437        C  0.77964828  0.18865943  0.35004527     0.13200
C438        C  0.79356401  0.18139518  0.37325047    -0.12300
N439        N  0.84890581  0.23313548  0.37375055     0.64900
H440        H  0.82117270  0.23973940  0.32965350     0.12700
N441        N  0.75459925  0.17528000  0.34450767     0.61500
H442        H  0.78583644  0.16473408  0.38502185     0.08900
O443        O  0.90813428  0.19923687  0.44400451    -0.40000
O444        O  0.90208036  0.15574867  0.44068767    -0.39100
O445        O  0.76437379  0.17562369  0.43144489    -0.39100
O446        O  0.77285214  0.21879979  0.43302401    -0.36900
O447        O  0.75306415  0.15720988  0.32653558    -0.37800
O448        O  0.73362278  0.18254171  0.35676248    -0.33900
O449        O  0.87108050  0.23025174  0.36178547    -0.35300
O450        O  0.84464032  0.25478072  0.38655231    -0.39600
C451        C  0.21601614  0.82228912  0.43127139    -0.13300
C452        C  0.20300048  0.82761830  0.40695627     0.17100
C453        C  0.17489059  0.83263733  0.40782003     0.03400
C454        C  0.16006301  0.82759824  0.43124374    -0.11800
C455        C  0.17280066  0.81909776  0.45455859    -0.02900
C456        C  0.20119395  0.81825182  0.45497486     0.02600
C457        C  0.21631670  0.81873346  0.38133446     0.09500
N458        N  0.16048323  0.84045542  0.38446784     0.65800
H459        H  0.13839013  0.82863859  0.43068328     0.18700
N460        N  0.21515515  0.81068307  0.47872926     0.76300
H461        H  0.23726918  0.81825725  0.43142756     0.10200
C462        C  0.24254025  0.82641185  0.37274851     0.03900
C463        C  0.25419812  0.81400668  0.34981351    -0.04800
C464        C  0.24027170  0.79384121  0.33521442    -0.23200
C465        C  0.21441373  0.78579177  0.34471008     0.13200
C466        C  0.20324271  0.79798477  0.36728417    -0.12300
N467        N  0.25768265  0.84669798  0.38678078     0.64900
H468        H  0.27400923  0.82029406  0.34338017     0.12700
N469        N  0.19924991  0.76403897  0.33299598     0.61500
H470        H  0.18436565  0.79001847  0.37460441     0.08900
O471        O  0.22526919  0.82890627  0.49355376    -0.40000
O472        O  0.22290056  0.78665593  0.48120126    -0.39100
O473        O  0.14601153  0.82304532  0.37258907    -0.39100
O474        O  0.15506635  0.86510481  0.38169708    -0.36900
O475        O  0.19774323  0.74213525  0.34569152    -0.37800
O476        O  0.18022779  0.76978797  0.31742525    -0.33900
O477        O  0.27695665  0.83957131  0.40145948    -0.35300
O478        O  0.25726218  0.87061578  0.37829595    -0.39600
C479        C  0.21469629  0.08910919  0.63980071    -0.13300
C480        C  0.19345503  0.10454450  0.65006741     0.17100
C481        C  0.16721750  0.09329387  0.64926862     0.03400
C482        C  0.16350425  0.06574753  0.64374744    -0.11800
C483        C  0.18563242  0.04945193  0.63856461    -0.02900
C484        C  0.21076006  0.06174224  0.63321491     0.02600
C485        C  0.20009626  0.12976088  0.66547878     0.09500
N486        N  0.14418702  0.10921911  0.65473028     0.65800
H487        H  0.14385637  0.05667785  0.64680538     0.18700
N488        N  0.23311980  0.04559238  0.62488568     0.76300
H489        H  0.23481599  0.09768266  0.63899631     0.10200
C490        C  0.19422017  0.13186068  0.69317397     0.03900
C491        C  0.20376544  0.15392460  0.70813804    -0.04800
C492        C  0.22091748  0.17361539  0.69699167    -0.23200
C493        C  0.22719789  0.17139105  0.66926588     0.13200
C494        C  0.21635407  0.14989970  0.65379562    -0.12300
N495        N  0.18161605  0.11022946  0.70747012     0.64900
H496        H  0.19894674  0.15448557  0.72928442     0.12700
N497        N  0.24583488  0.18943249  0.65670544     0.61500
H498        H  0.22178292  0.14818808  0.63284153     0.08900
O499        O  0.25592017  0.04909547  0.63551628    -0.40000
O500        O  0.22970764  0.02658411  0.60811604    -0.39100
O501        O  0.13329714  0.12100003  0.63527185    -0.39100
O502        O  0.13019089  0.10381583  0.67516454    -0.36900
O503        O  0.27000177  0.18231187  0.65426374    -0.37800
O504        O  0.23702673  0.20762189  0.64160038    -0.33900
O505        O  0.19582981  0.09054744  0.71446255    -0.35300
O506        O  0.16012758  0.11478407  0.72014353    -0.39600
C507        C  0.09795494  0.21490136  0.62410547    -0.13300
C508        C  0.10369417  0.19618771  0.64426822     0.17100
C509        C  0.08319342  0.17704562  0.65117815     0.03400
C510        C  0.05739673  0.17907481  0.64004723    -0.11800
C511        C  0.05113701  0.19989270  0.62245234    -0.02900
C512        C  0.07211543  0.21689055  0.61324282     0.02600
C513        C  0.12767547  0.20191383  0.66178500     0.09500
N514        N  0.08730885  0.15597253  0.67019494     0.65800
H515        H  0.04164718  0.16573226  0.64710483     0.18700
N516        N  0.06732134  0.23730093  0.59376102     0.76300
H517        H  0.11259482  0.22995452  0.61858570     0.10200
C518        C  0.15349776  0.20969647  0.65202128     0.03900
C519        C  0.17296889  0.22053827  0.66981314    -0.04800
C520        C  0.16780485  0.22294366  0.69748471    -0.23200
C521        C  0.14240547  0.21422127  0.70709272     0.13200
C522        C  0.12269297  0.20510338  0.68925799    -0.12300
N523        N  0.16042726  0.20718817  0.62423312     0.64900
H524        H  0.19215115  0.22693540  0.66197723     0.12700
N525        N  0.13522276  0.21570582  0.73483750     0.61500
H526        H  0.10283878  0.20225048  0.69704473     0.08900
O527        O  0.06545156  0.26155898  0.60143543    -0.40000
O528        O  0.07293575  0.23243159  0.56949529    -0.39100
O529        O  0.08046476  0.15999206  0.69430024    -0.39100
O530        O  0.08644137  0.13201234  0.66146404    -0.36900
O531        O  0.11724124  0.23207455  0.74190054    -0.37800
O532        O  0.13935780  0.19537364  0.74928802    -0.33900
O533        O  0.16302584  0.22832958  0.61045324    -0.35300
O534        O  0.17180740  0.18592076  0.61625639    -0.39600
C535        C  0.02038698  0.92495849  0.40581192    -0.13300
C536        C  0.99667738  0.90958908  0.40512294     0.17100
C537        C  0.97577646  0.91622535  0.42284127     0.03400
C538        C  0.97915807  0.93753455  0.44144108    -0.11800
C539        C  0.00265938  0.95391276  0.44192449    -0.02900
C540        C  0.02365970  0.94695600  0.42365697     0.02600
C541        C  0.99525934  0.88505154  0.38767860     0.09500
N542        N  0.95064341  0.90204098  0.42134290     0.65800
H543        H  0.96314390  0.94132412  0.45569647     0.18700
N544        N  0.04878736  0.96117626  0.42286839     0.76300
H545        H  0.03674145  0.91963559  0.39247125     0.10200
C546        C  0.99269887  0.88667234  0.35955270     0.03900
C547        C  0.99490016  0.86328757  0.34362324    -0.04800
C548        C  0.99884744  0.83800145  0.35529228    -0.23200
C549        C  0.99995504  0.83610503  0.38348594     0.13200
C550        C  0.99844427  0.85960467  0.39941244    -0.12300
N551        N  0.98766961  0.91183219  0.34683543     0.64900
H552        H  0.99369855  0.86479369  0.32205844     0.12700
N553        N  0.00350031  0.81069010  0.39625455     0.61500
H554        H  0.00037016  0.85807089  0.42093674     0.08900
O555        O  0.06982821  0.94815805  0.42791552    -0.40000
O556        O  0.05089322  0.98153324  0.40797756    -0.39100
O557        O  0.93434192  0.90768957  0.40288212    -0.39100
O558        O  0.94736614  0.88048898  0.43431264    -0.36900
O559        O  0.02632452  0.80489642  0.40540080    -0.37800
O560        O  0.98309983  0.79820368  0.40497910    -0.33900
O561        O  0.00683097  0.92421176  0.33557860    -0.35300
O562        O  0.96381186  0.91779742  0.34093327    -0.39600
C563        C  0.90363476  0.96853150  0.36339779    -0.13300
C564        C  0.89978841  0.99034481  0.38098194     0.17100
C565        C  0.87898460  0.00867026  0.37579050     0.03400
C566        C  0.86267773  0.00509247  0.35299631    -0.11800
C567        C  0.86708721  0.98379073  0.33476979    -0.02900
C568        C  0.88788246  0.96526329  0.34031698     0.02600
C569        C  0.91976254  0.99465492  0.40271495     0.09500
N570        N  0.87523314  0.03200195  0.39234928     0.65800
H571        H  0.84737440  0.01969301  0.34888699     0.18700
N572        N  0.89487749  0.94430614  0.32173665     0.76300
H573        H  0.91989276  0.95470854  0.36690127     0.10200
C574        C  0.91478065  0.98640404  0.42921850     0.03900
C575        C  0.93549984  0.98727553  0.44820199    -0.04800
C576        C  0.96151700  0.99608625  0.44132808    -0.23200
C577        C  0.96639396  0.00478791  0.41478301     0.13200
C578        C  0.94557693  0.00388009  0.39580255    -0.12300
N579        N  0.88921082  0.97572201  0.43694101     0.64900
H580        H  0.93146082  0.98035045  0.46823939     0.12700
N581        N  0.99218755  0.01453713  0.40650678     0.61500
H582        H  0.94969022  0.00995987  0.37540991     0.08900
O583        O  0.88917772  0.92012617  0.32739789    -0.40000
O584        O  0.91264935  0.94899100  0.30423497    -0.39100
O585        O  0.88454305  0.05442446  0.38460984    -0.39100
O586        O  0.85689870  0.03165916  0.40986119    -0.36900
O587        O  0.00486643  0.00113720  0.38905629    -0.37800
O588        O  0.99751362  0.03938447  0.40918600    -0.33900
O589        O  0.87314767  0.99072420  0.44961224    -0.35300
O590        O  0.88604274  0.95043939  0.43796098    -0.39600
C591        C  0.91539642  0.05055184  0.50724152    -0.13300
C592        C  0.91333799  0.07091277  0.48807928     0.17100
C593        C  0.93214160  0.07164744  0.46687600     0.03400
C594        C  0.95319259  0.05299503  0.46598720    -0.11800
C595        C  0.95591110  0.03308419  0.48574048    -0.02900
C596        C  0.93607499  0.03150525  0.50610303     0.02600
C597        C  0.89510156  0.09382844  0.49397892     0.09500
N598        N  0.93096018  0.09185382  0.44666765     0.65800
H599        H  0.96801252  0.05464007  0.45029425     0.18700
N600        N  0.93627806  0.01083589  0.52588041     0.76300
H601        H  0.90114755  0.04984330  0.52362418     0.10200
C602        C  0.87050561  0.09796111  0.48061836     0.03900
C603        C  0.85480962  0.12062942  0.48708910    -0.04800
C604        C  0.86300745  0.13911749  0.50707720    -0.23200
C605        C  0.88711136  0.13413469  0.52115948     0.13200
C606        C  0.90265393  0.11164294  0.51465005    -0.12300
N607        N  0.86100126  0.07937018  0.46065794     0.64900
H608        H  0.83656856  0.12423265  0.47605124     0.12700
N609        N  0.89719299  0.15256485  0.54100323     0.61500
H610        H  0.92117695  0.10844125  0.52540716     0.08900
O611        O  0.92698481  0.98782116  0.51964962    -0.40000
O612        O  0.93634360  0.01782597  0.55029875    -0.39100
O613        O  0.94673960  0.11192298  0.44814482    -0.39100
O614        O  0.92045806  0.08583799  0.42433223    -0.36900
O615        O  0.89676517  0.14549834  0.56525737    -0.37800
O616        O  0.91345220  0.17088908  0.53391195    -0.33900
O617        O  0.84426866  0.06131326  0.46734908    -0.35300
O618        O  0.86303679  0.08565407  0.43625157    -0.39600
C619        C  0.99787092  0.06346794  0.56791347    -0.13300
C620        C  0.99606208  0.08892922  0.55595861     0.17100
C621        C  0.99635958  0.09022574  0.52760548     0.03400
C622        C  0.99889685  0.06668292  0.51219611    -0.11800
C623        C  0.99996741  0.04098479  0.52384002    -0.02900
C624        C  0.99966861  0.03957320  0.55243023     0.02600
C625        C  0.99737691  0.11393017  0.57311714     0.09500
N626        N  0.99405939  0.11528159  0.51380132     0.65800
H627        H  0.00022252  0.06858315  0.49066049     0.18700
N628        N  0.00251711  0.01478145  0.56662043     0.76300
H629        H  0.99881497  0.06208665  0.58948610     0.10200
C630        C  0.98063649  0.11839391  0.59559860     0.03900
C631        C  0.98293357  0.14254383  0.61076194    -0.04800
C632        C  0.00110316  0.16332093  0.60329452    -0.23200
C633        C  0.01787944  0.15840047  0.58067097     0.13200
C634        C  0.01666078  0.13365310  0.56691275    -0.12300
N635        N  0.96007286  0.09942255  0.60282128     0.64900
H636        H  0.97042930  0.14468365  0.62721662     0.12700
N637        N  0.03478705  0.17882044  0.56939159     0.61500
H638        H  0.03039646  0.13031767  0.55061059     0.08900
O639        O  0.98171572  0.00117715  0.57215491    -0.40000
O640        O  0.02271271  0.01239863  0.58168324    -0.39100
O641        O  0.01444792  0.12487277  0.50199445    -0.39100
O642        O  0.97105715  0.12289751  0.50667619    -0.36900
O643        O  0.02455672  0.19522063  0.55318519    -0.37800
O644        O  0.05977725  0.17478208  0.56829867    -0.33900
O645        O  0.96343373  0.08476053  0.62310470    -0.35300
O646        O  0.93657591  0.10275254  0.59404538    -0.39600
C647        C  0.09969950  0.99560351  0.61190646    -0.13300
C648        C  0.10756387  0.99832028  0.58494562     0.17100
C649        C  0.13509646  0.00269944  0.57915811     0.03400
C650        C  0.15396608  0.00401224  0.60007420    -0.11800
C651        C  0.14608224  0.00103514  0.62695846    -0.02900
C652        C  0.11861780  0.99684930  0.63279830     0.02600
C653        C  0.08650313  0.99838089  0.56356407     0.09500
N654        N  0.14441598  0.00539926  0.55215045     0.65800
H655        H  0.17491546  0.00714465  0.59533085     0.18700
N656        N  0.10929690  0.99545775  0.65987377     0.76300
H657        H  0.07868759  0.99338109  0.61687021     0.10200
C658        C  0.06783207  0.97693662  0.56038320     0.03900
C659        C  0.04746766  0.97843291  0.54107314    -0.04800
C660        C  0.04504757  0.00089150  0.52420513    -0.23200
C661        C  0.06352011  0.02277257  0.52778623     0.13200
C662        C  0.08382278  0.02120925  0.54733507    -0.12300
N663        N  0.06892689  0.95346460  0.57676309     0.64900
H664        H  0.03324290  0.96188837  0.53935239     0.12700
N665        N  0.06253211  0.04671300  0.51196288     0.61500
H666        H  0.09739193  0.03816633  0.55005865     0.08900
O667        O  0.10136743  0.97302713  0.66891802    -0.40000
O668        O  0.10210813  0.01689639  0.67160365    -0.39100
O669        O  0.15099804  0.02849289  0.54369956    -0.39100
O670        O  0.15267133  0.98474853  0.53975627    -0.36900
O671        O  0.05631114  0.06854038  0.52354486    -0.37800
O672        O  0.07703056  0.04805094  0.49121755    -0.33900
O673        O  0.05223195  0.95092063  0.59569925    -0.35300
O674        O  0.08062743  0.93276495  0.56781774    -0.39600
C675        C  0.08959165  0.93813603  0.48838672    -0.13300
C676        C  0.07946492  0.91163345  0.49131489     0.17100
C677        C  0.05106289  0.90805540  0.49180341     0.03400
C678        C  0.03411715  0.93023883  0.48926658    -0.11800
C679        C  0.04420006  0.95630171  0.48477362    -0.02900
C680        C  0.07248151  0.96029974  0.48433360     0.02600
C681        C  0.09856883  0.88838108  0.49485543     0.09500
N682        N  0.03861906  0.88202840  0.49411865     0.65800
H683        H  0.01261278  0.92694471  0.49052214     0.18700
N684        N  0.08416060  0.98629759  0.47866535     0.76300
H685        H  0.11104081  0.94170193  0.48895304     0.10200
C686        C  0.12261424  0.88539182  0.47988162     0.03900
C687        C  0.13945617  0.86315002  0.48418635    -0.04800
C688        C  0.13146560  0.84125462  0.50041128    -0.23200
C689        C  0.10762032  0.84482962  0.51591110     0.13200
C690        C  0.09279277  0.86871593  0.51413943    -0.12300
N691        N  0.12942092  0.90323049  0.45846017     0.64900
H692        H  0.15802888  0.86283499  0.47365120     0.12700
N693        N  0.09640129  0.82405377  0.53222411     0.61500
H694        H  0.07591868  0.87115721  0.52733463     0.08900
O695        O  0.10657310  0.99305560  0.48867871    -0.40000
O696        O  0.07334373  0.00161105  0.46179163    -0.39100
O697        O  0.02720715  0.87599016  0.51595032    -0.39100
O698        O  0.03143245  0.86979755  0.47294098    -0.36900
O699        O  0.09716939  0.82704201  0.55741501    -0.37800
O700        O  0.07849609  0.80884457  0.52214689    -0.33900
O701        O  0.14932832  0.91901829  0.46117173    -0.35300
O702        O  0.12127934  0.89744668  0.43509409    -0.39600
C703        C  0.67660436  0.30255898  0.35513250    -0.13300
C704        C  0.65850825  0.28531762  0.36814333     0.17100
C705        C  0.65367576  0.25923309  0.35708343     0.03400
C706        C  0.66791618  0.25070595  0.33427713    -0.11800
C707        C  0.68887682  0.26658373  0.32394997    -0.02900
C708        C  0.69338080  0.29282058  0.33490891     0.02600
C709        C  0.64785393  0.29353512  0.39489217     0.09500
N710        N  0.63697211  0.23992242  0.37046027     0.65800
H711        H  0.66467005  0.23044788  0.32663783     0.18700
N712        N  0.71662360  0.30876092  0.32841244     0.76300
H713        H  0.67983549  0.32283299  0.36258333     0.10200
C714        C  0.66494923  0.30466615  0.41502722     0.03900
C715        C  0.65563578  0.30705618  0.44123992    -0.04800
C716        C  0.63023948  0.29715766  0.44834090    -0.23200
C717        C  0.61207499  0.28929036  0.42811609     0.13200
C718        C  0.62081855  0.28815168  0.40138156    -0.12300
N719        N  0.69278200  0.31050356  0.41036606     0.64900
H720        H  0.66967508  0.31322949  0.45663335     0.12700
N721        N  0.58511065  0.28153997  0.43441195     0.61500
H722        H  0.60695286  0.28146530  0.38602737     0.08900
O723        O  0.73829475  0.30389661  0.34049500    -0.40000
O724        O  0.71335643  0.33216473  0.31932963    -0.39100
O725        O  0.61439699  0.23367143  0.36056090    -0.39100
O726        O  0.64727103  0.22473843  0.38777026    -0.36900
O727        O  0.56691015  0.29903290  0.43311832    -0.37800
O728        O  0.57864188  0.25683960  0.43392069    -0.33900
O729        O  0.70058509  0.33484171  0.41014020    -0.35300
O730        O  0.70980404  0.29228084  0.41441098    -0.39600
C731        C  0.28498256  0.37897787  0.69674413    -0.13300
C732        C  0.30296375  0.37276355  0.67584937     0.17100
C733        C  0.30309858  0.34625247  0.66523657     0.03400
C734        C  0.28769100  0.32585933  0.67762451    -0.11800
C735        C  0.27206126  0.33175332  0.70037146    -0.02900
C736        C  0.26923730  0.35881020  0.70865776     0.02600
C737        C  0.32372230  0.39350438  0.66923335     0.09500
N738        N  0.31850486  0.33979197  0.64191077     0.65800
H739        H  0.28916680  0.30524280  0.67043613     0.18700
N740        N  0.25081976  0.36580824  0.72962335     0.76300
H741        H  0.28410748  0.39943010  0.70468074     0.10200
C742        C  0.31656292  0.41725589  0.65586297     0.03900
C743        C  0.32984956  0.44182516  0.66208308    -0.04800
C744        C  0.35070470  0.44271793  0.68117209    -0.23200
C745        C  0.36088071  0.41789720  0.69049295     0.13200
C746        C  0.34734397  0.39360549  0.68445005    -0.12300
N747        N  0.29418950  0.41691686  0.63793722     0.64900
H748        H  0.32175324  0.46048169  0.65447151     0.12700
N749        N  0.38242323  0.41730739  0.70942377     0.61500
H750        H  0.35329437  0.37542355  0.69457975     0.08900
O751        O  0.25941303  0.37080464  0.75298681    -0.40000
O752        O  0.22586578  0.36314937  0.72572308    -0.39100
O753        O  0.33996663  0.32676025  0.64436203    -0.39100
O754        O  0.30735745  0.34073236  0.61920623    -0.36900
O755        O  0.40528935  0.40980630  0.70153264    -0.37800
O756        O  0.37702047  0.41655166  0.73417429    -0.33900
O757        O  0.27108491  0.42243758  0.64673663    -0.35300
O758        O  0.29649981  0.40549789  0.61530119    -0.39600
C759        C  0.35267031  0.65691118  0.28840806    -0.13300
C760        C  0.36645641  0.66984039  0.30966655     0.17100
C761        C  0.35815380  0.69574450  0.31791709     0.03400
C762        C  0.33686665  0.70818096  0.30495575    -0.11800
C763        C  0.32424739  0.69645618  0.28234620    -0.02900
C764        C  0.33176531  0.66995551  0.27462267     0.02600
C765        C  0.39261605  0.65928312  0.31921782     0.09500
N766        N  0.37340946  0.71152912  0.33678953     0.65800
H767        H  0.33169272  0.72828038  0.31164045     0.18700
N768        N  0.31973546  0.65648656  0.25208777     0.76300
H769        H  0.35919748  0.63730652  0.28149425     0.10200
C770        C  0.39788667  0.65465259  0.34670827     0.03900
C771        C  0.42443111  0.65585521  0.35619088    -0.04800
C772        C  0.44563064  0.66119929  0.33850888    -0.23200
C773        C  0.44078295  0.66066540  0.31056951     0.13200
C774        C  0.41426782  0.66011108  0.30118893    -0.12300
N775        N  0.37656959  0.65026211  0.36545749     0.64900
H776        H  0.42807972  0.65570246  0.37761447     0.12700
N777        N  0.46245352  0.66482822  0.29194623     0.61500
H778        H  0.41055711  0.66301458  0.27995395     0.08900
O779        O  0.33088818  0.65834384  0.22940148    -0.40000
O780        O  0.30344619  0.63725051  0.25616044    -0.39100
O781        O  0.39329133  0.72505443  0.32835316    -0.39100
O782        O  0.36255870  0.71842625  0.35868062    -0.36900
O783        O  0.46090616  0.68300187  0.27442060    -0.37800
O784        O  0.48413737  0.65211210  0.29456973    -0.33900
O785        O  0.37072311  0.66879781  0.38191268    -0.35300
O786        O  0.36994679  0.62627674  0.37095671    -0.39600
C787        C  0.68517828  0.36484464  0.27359198    -0.13300
C788        C  0.66082230  0.36018623  0.28707644     0.17100
C789        C  0.64997577  0.33360079  0.28675600     0.03400
C790        C  0.66508503  0.31210409  0.27570151    -0.11800
C791        C  0.69087487  0.31672240  0.26490580    -0.02900
C792        C  0.70022946  0.34365185  0.26288190     0.02600
C793        C  0.64853844  0.38402030  0.30111681     0.09500
N794        N  0.62425897  0.32778204  0.29820107     0.65800
H795        H  0.65735928  0.29169683  0.27704754     0.18700
N796        N  0.72559693  0.34994007  0.25087511     0.76300
H797        H  0.69319793  0.38515613  0.27224195     0.10200
C798        C  0.66457381  0.39990259  0.31882247     0.03900
C799        C  0.65914625  0.42730606  0.32261958    -0.04800
C800        C  0.63636160  0.43899896  0.31143327    -0.23200
C801        C  0.61773869  0.42214717  0.29783893     0.13200
C802        C  0.62420268  0.39498105  0.29202880    -0.12300
N803        N  0.68773027  0.38903021  0.33156122     0.64900
H804        H  0.67406989  0.43991826  0.33257817     0.12700
N805        N  0.59293732  0.43300533  0.28867159     0.61500
H806        H  0.61119290  0.38317410  0.27890462     0.08900
O807        O  0.74586457  0.35337965  0.26577713    -0.40000
O808        O  0.72597948  0.35950501  0.22749099    -0.39100
O809        O  0.60424993  0.32524832  0.28280642    -0.39100
O810        O  0.62302866  0.31778976  0.32138417    -0.36900
O811        O  0.57441425  0.43732986  0.30546380    -0.37800
O812        O  0.59181191  0.44378903  0.26585653    -0.33900
O813        O  0.71080526  0.39602407  0.32348249    -0.35300
O814        O  0.68521669  0.37965146  0.35491405    -0.39600
C815        C  0.30968069  0.67413774  0.40877921    -0.13300
C816        C  0.28782193  0.66079023  0.39624088     0.17100
C817        C  0.27894790  0.63596207  0.40714807     0.03400
C818        C  0.28905660  0.62740364  0.43185732    -0.11800
C819        C  0.30777590  0.64312442  0.44638813    -0.02900
C820        C  0.31931106  0.66587260  0.43390122     0.02600
C821        C  0.27327854  0.67430819  0.37367285     0.09500
N822        N  0.25794572  0.62028371  0.39494995     0.65800
H823        H  0.28016680  0.60975193  0.44106016     0.18700
N824        N  0.33829510  0.68272860  0.44774799     0.76300
H825        H  0.31819111  0.69209228  0.39993485     0.10200
C826        C  0.26603437  0.70193028  0.37552306     0.03900
C827        C  0.25330356  0.71442189  0.35403749    -0.04800
C828        C  0.24649482  0.70005364  0.33072123    -0.23200
C829        C  0.25302663  0.67262008  0.32872919     0.13200
C830        C  0.26644682  0.65992600  0.34998182    -0.12300
N831        N  0.27138688  0.71790825  0.39900875     0.64900
H832        H  0.24955909  0.73587050  0.35529112     0.12700
N833        N  0.24706400  0.65787416  0.30468949     0.61500
H834        H  0.27225996  0.63904610  0.34753857     0.08900
O835        O  0.33033022  0.70408692  0.45909300    -0.40000
O836        O  0.36303633  0.67988949  0.44307748    -0.39100
O837        O  0.26396227  0.59879919  0.38261421    -0.39100
O838        O  0.23410270  0.62339165  0.40296780    -0.36900
O839        O  0.22384746  0.64784757  0.30171917    -0.37800
O840        O  0.26177153  0.66119694  0.28432364    -0.33900
O841        O  0.29015440  0.73524996  0.39832675    -0.35300
O842        O  0.25301854  0.72057510  0.41629257    -0.39600
C843        C  0.42483904  0.30492892  0.70007413    -0.13300
C844        C  0.40817374  0.30301724  0.67733591     0.17100
C845        C  0.41983444  0.30698054  0.65166384     0.03400
C846        C  0.44784472  0.31061899  0.64925785    -0.11800
C847        C  0.46413077  0.31180998  0.67213259    -0.02900
C848        C  0.45231169  0.30991717  0.69766433     0.02600
C849        C  0.37895756  0.29788693  0.68225442     0.09500
N850        N  0.40373329  0.30888612  0.62808377     0.65800
H851        H  0.45687489  0.31246641  0.62956178     0.18700
N852        N  0.46817814  0.31319509  0.72138163     0.76300
H853        H  0.41640818  0.30256005  0.72003952     0.10200
C854        C  0.36524262  0.27436550  0.67308846     0.03900
C855        C  0.34028506  0.26705931  0.68440020    -0.04800
C856        C  0.32940912  0.28182117  0.70593097    -0.23200
C857        C  0.34251657  0.30615884  0.71404833     0.13200
C858        C  0.36634091  0.31430216  0.70148182    -0.12300
N859        N  0.37738071  0.25603081  0.65454550     0.64900
H860        H  0.33073315  0.24839928  0.67801269     0.12700
N861        N  0.33346370  0.32183904  0.73653344     0.61500
H862        H  0.37648145  0.33233130  0.70876248     0.08900
O863        O  0.47905700  0.29300721  0.73196102    -0.40000
O864        O  0.47402308  0.33665531  0.72971398    -0.39100
O865        O  0.39623025  0.33197002  0.62086542    -0.39100
O866        O  0.40499407  0.29027742  0.61067291    -0.36900
O867        O  0.34251238  0.31654238  0.75953085    -0.37800
O868        O  0.32414692  0.34502775  0.73251089    -0.33900
O869        O  0.39112453  0.23690413  0.66363183    -0.35300
O870        O  0.36758240  0.25377236  0.63127011    -0.39600
C871        C  0.38360959  0.59200287  0.47828248    -0.13300
C872        C  0.40198669  0.59829579  0.49877622     0.17100
C873        C  0.39879659  0.62312583  0.51262354     0.03400
C874        C  0.37623021  0.63924461  0.50755614    -0.11800
C875        C  0.35517396  0.63024394  0.49066584    -0.02900
C876        C  0.36000911  0.60675937  0.47478116     0.02600
C877        C  0.42323776  0.57792428  0.50519940     0.09500
N878        N  0.41680787  0.63148055  0.53346569     0.65800
H879        H  0.37446571  0.65800363  0.51839399     0.18700
N880        N  0.34082555  0.59605601  0.45615905     0.76300
H881        H  0.38671281  0.57439329  0.46580177     0.10200
C882        C  0.41650613  0.55014116  0.50704225     0.03900
C883        C  0.43660404  0.53082866  0.50863034    -0.04800
C884        C  0.46376271  0.53803562  0.51021687    -0.23200
C885        C  0.47088661  0.56586915  0.51062423     0.13200
C886        C  0.45058161  0.58543886  0.50731993    -0.12300
N887        N  0.38920379  0.54084229  0.50769119     0.64900
H888        H  0.43093151  0.51005949  0.50810528     0.12700
N889        N  0.49834976  0.57456582  0.51429004     0.61500
H890        H  0.45621482  0.60651856  0.50606703     0.08900
O891        O  0.32576714  0.57681777  0.46349862    -0.40000
O892        O  0.34523721  0.59908617  0.43139309    -0.39100
O893        O  0.43286798  0.65085482  0.52912941    -0.39100
O894        O  0.41108730  0.62556906  0.55741072    -0.36900
O895        O  0.51411411  0.56123491  0.52879476    -0.37800
O896        O  0.50650019  0.59661643  0.50450609    -0.33900
O897        O  0.37992550  0.52798454  0.48769715    -0.35300
O898        O  0.37789231  0.53804820  0.53019906    -0.39600
C899        C  0.42515032  0.48586857  0.58092584    -0.13300
C900        C  0.42897692  0.50737218  0.59915616     0.17100
C901        C  0.45029327  0.52579198  0.59426595     0.03400
C902        C  0.46738207  0.52208595  0.57198696    -0.11800
C903        C  0.46450036  0.49975918  0.55454336    -0.02900
C904        C  0.44237091  0.48192512  0.55877817     0.02600
C905        C  0.41174978  0.50839916  0.62396365     0.09500
N906        N  0.45502214  0.54847961  0.61158605     0.65800
H907        H  0.48358491  0.53635732  0.56876636     0.18700
N908        N  0.43628040  0.46012634  0.54064712     0.76300
H909        H  0.40887081  0.47165502  0.58415846     0.10200
C910        C  0.38335229  0.50995853  0.62251110     0.03900
C911        C  0.36743625  0.50512717  0.64540957    -0.04800
C912        C  0.37923739  0.49930032  0.67014667    -0.23200
C913        C  0.40745187  0.49924864  0.67209644     0.13200
C914        C  0.42347351  0.50362687  0.64916788    -0.12300
N915        N  0.37028797  0.51663830  0.59798218     0.64900
H916        H  0.34577296  0.50572424  0.64385595     0.12700
N917        N  0.41994954  0.49355887  0.69716824     0.61500
H918        H  0.44511788  0.50199853  0.65081225     0.08900
O919        O  0.42049387  0.46439156  0.52138726    -0.40000
O920        O  0.43802452  0.43630793  0.54915616    -0.39100
O921        O  0.47336356  0.54715029  0.62897972    -0.39100
O922        O  0.44704453  0.57139314  0.60436029    -0.36900
O923        O  0.42494093  0.51266125  0.71339577    -0.37800
O924        O  0.42085231  0.46951727  0.70524624    -0.33900
O925        O  0.35802665  0.49832638  0.58498696    -0.35300
O926        O  0.36468754  0.54100888  0.59365097    -0.39600
C927        C  0.47898555  0.55388977  0.42706840    -0.13300
C928        C  0.50107915  0.57159016  0.42432632     0.17100
C929        C  0.52335813  0.56844001  0.44149366     0.03400
C930        C  0.52288219  0.54867544  0.46128335    -0.11800
C931        C  0.50069901  0.53137554  0.46460329    -0.02900
C932        C  0.47836732  0.53379978  0.44705608     0.02600
C933        C  0.49846547  0.59622522  0.40752760     0.09500
N934        N  0.54645917  0.58573631  0.43975070     0.65800
H935        H  0.53968649  0.54755068  0.47494474     0.18700
N936        N  0.45466726  0.51701063  0.44974681     0.76300
H937        H  0.46162434  0.55653723  0.41430898     0.10200
C938        C  0.49414092  0.59554367  0.37943221     0.03900
C939        C  0.49035535  0.61981417  0.36539948    -0.04800
C940        C  0.49143041  0.64488470  0.37885090    -0.23200
C941        C  0.49573370  0.64537165  0.40678874     0.13200
C942        C  0.49879799  0.62129995  0.42080540    -0.12300
N943        N  0.49479468  0.57070359  0.36463132     0.64900
H944        H  0.48750462  0.61918869  0.34393625     0.12700
N945        N  0.49621400  0.67023074  0.42150414     0.61500
H946        H  0.50110101  0.62222711  0.44234902     0.08900
O947        O  0.43201317  0.52580388  0.44279315    -0.40000
O948        O  0.45607929  0.49336659  0.45886980    -0.39100
O949        O  0.54935100  0.60457569  0.45677767    -0.39100
O950        O  0.56682141  0.57744246  0.42713938    -0.36900
O951        O  0.47492218  0.67822275  0.43267534    -0.37800
O952        O  0.51850700  0.67987165  0.42919819    -0.33900
O953        O  0.47300096  0.56026434  0.35650968    -0.35300
O954        O  0.51653144  0.56366961  0.35364518    -0.39600
C955        C  0.55177712  0.47419714  0.41869020    -0.13300
C956        C  0.57765784  0.48496219  0.42182040     0.17100
C957        C  0.58487906  0.49730154  0.44629310     0.03400
C958        C  0.56601919  0.49887986  0.46720524    -0.11800
C959        C  0.53990361  0.48808859  0.46429975    -0.02900
C960        C  0.53285854  0.47565321  0.43950861     0.02600
C961        C  0.59527837  0.48680025  0.39800632     0.09500
N962        N  0.61088516  0.50939147  0.44957941     0.65800
H963        H  0.57133333  0.50972775  0.48542506     0.18700
N964        N  0.50641386  0.46547559  0.43431451     0.76300
H965        H  0.54592540  0.46534894  0.39957368     0.10200
C966        C  0.61507853  0.46762891  0.39223964     0.03900
C967        C  0.63051109  0.46971611  0.36879001    -0.04800
C968        C  0.62534362  0.48985694  0.34989179    -0.23200
C969        C  0.60531238  0.50919124  0.35584794     0.13200
C970        C  0.59099784  0.50779558  0.38002596    -0.12300
N971        N  0.61911227  0.44504439  0.40920269     0.64900
H972        H  0.64560093  0.45548601  0.36537407     0.12700
N973        N  0.59737368  0.52906118  0.33693129     0.61500
H974        H  0.57556085  0.52237668  0.38416577     0.08900
O975        O  0.49167507  0.47868903  0.41870814    -0.40000
O976        O  0.50227884  0.44038964  0.43614572    -0.39100
O977        O  0.61524930  0.53288679  0.44087914    -0.39100
O978        O  0.63048120  0.49485312  0.45601110    -0.36900
O979        O  0.57918084  0.52290287  0.32027452    -0.37800
O980        O  0.60107383  0.55365565  0.34286582    -0.33900
O981        O  0.60570323  0.42368851  0.40475190    -0.35300
O982        O  0.64076541  0.44375062  0.42222990    -0.39600
C983        C  0.58199837  0.42481752  0.51554187    -0.13300
C984        C  0.57257439  0.40240720  0.50080815     0.17100
C985        C  0.54690903  0.40375232  0.48882875     0.03400
C986        C  0.53124159  0.42692081  0.49223973    -0.11800
C987        C  0.54048192  0.44927666  0.50723101    -0.02900
C988        C  0.56645161  0.44815436  0.51871492     0.02600
C989        C  0.58906835  0.37737191  0.50011637     0.09500
N990        N  0.53661553  0.38215261  0.47250200     0.65800
H991        H  0.51147945  0.42732144  0.48347244     0.18700
N992        N  0.57748336  0.46993891  0.53423105     0.76300
H993        H  0.60138338  0.42401989  0.52520510     0.10200
C994        C  0.61604614  0.37751842  0.49103473     0.03900
C995        C  0.63120152  0.35384732  0.49149306    -0.04800
C996        C  0.62024969  0.32990748  0.50137451    -0.23200
C997        C  0.59359728  0.32964475  0.51093097     0.13200
C998        C  0.57823173  0.35321964  0.51029168    -0.12300
N999        N  0.62766907  0.40075557  0.47881574     0.64900
H1000       H  0.65106971  0.35384806  0.48283341     0.12700
N1001       N  0.58160906  0.30505604  0.52008428     0.61500
H1002       H  0.55778929  0.35266623  0.51781391     0.08900
O1003       O  0.59260569  0.48677529  0.52261867    -0.40000
O1004       O  0.58102730  0.46613161  0.55895648    -0.39100
O1005       O  0.51828514  0.36708003  0.48176158    -0.39100
O1006       O  0.54002624  0.38311692  0.44741415    -0.36900
O1007       O  0.58753153  0.29622171  0.54298154    -0.37800
O1008       O  0.56916144  0.28993718  0.50367314    -0.33900
O1009       O  0.64465627  0.41467296  0.49185965    -0.35300
O1010       O  0.62801473  0.40160043  0.45354833    -0.39600
C1011       C  0.51386632  0.43985167  0.59872535    -0.13300
C1012       C  0.50550624  0.41358627  0.59173591     0.17100
C1013       C  0.49591376  0.40846080  0.56556166     0.03400
C1014       C  0.49573333  0.42926511  0.54676692    -0.11800
C1015       C  0.50453207  0.45548988  0.55342529    -0.02900
C1016       C  0.51339440  0.46085676  0.57999378     0.02600
C1017       C  0.50662123  0.39223299  0.61240122     0.09500
N1018       N  0.48474402  0.38278800  0.55805710     0.65800
H1019       H  0.48783887  0.42508126  0.52697567     0.18700
N1020       N  0.52161048  0.48728071  0.58873468     0.76300
H1021       H  0.52089972  0.44405646  0.61886940     0.10200
C1022       C  0.52532560  0.37112422  0.61076250     0.03900
C1023       C  0.52678953  0.35229461  0.63140444    -0.04800
C1024       C  0.51000831  0.35386866  0.65405064    -0.23200
C1025       C  0.49118621  0.37496488  0.65573583     0.13200
C1026       C  0.48982736  0.39404534  0.63505307    -0.12300
N1027       N  0.54352694  0.36872637  0.58867030     0.64900
H1028       H  0.54081546  0.33592286  0.62950191     0.12700
N1029       N  0.47349851  0.37759983  0.67820009     0.61500
H1030       H  0.47560880  0.41032200  0.63665006     0.08900
O1031       O  0.54612754  0.49375769  0.58730449    -0.40000
O1032       O  0.50729584  0.49927035  0.60591648    -0.39100
O1033       O  0.45989075  0.37872288  0.56141934    -0.39100
O1034       O  0.49715642  0.36833103  0.54125070    -0.36900
O1035       O  0.48028522  0.39308907  0.69732728    -0.37800
O1036       O  0.44893452  0.37176965  0.67515686    -0.33900
O1037       O  0.56669267  0.37912586  0.59081060    -0.35300
O1038       O  0.53980704  0.34994689  0.57174729    -0.39600
C1039       C  0.81370992  0.31567753  0.09903422    -0.13300
C1040       C  0.82008770  0.28818662  0.09626725     0.17100
C1041       C  0.82876516  0.27864151  0.07084442     0.03400
C1042       C  0.82868456  0.29590889  0.04864137    -0.11800
C1043       C  0.81971538  0.32254633  0.05110353    -0.02900
C1044       C  0.81378418  0.33286737  0.07687270     0.02600
C1045       C  0.81304009  0.26971470  0.11886753     0.09500
N1046       N  0.83612297  0.25111062  0.06667244     0.65800
H1047       H  0.83302185  0.28765813  0.02898779     0.18700
N1048       N  0.80623022  0.36039510  0.08073277     0.76300
H1049       H  0.80644165  0.32346955  0.11791515     0.10200
C1050       C  0.82047414  0.27579049  0.14563803     0.03900
C1051       C  0.80765765  0.26259722  0.16689713    -0.04800
C1052       C  0.78746611  0.24300726  0.16234667    -0.23200
C1053       C  0.78217144  0.23472345  0.13566063     0.13200
C1054       C  0.79454555  0.24842998  0.11425694    -0.12300
N1055       N  0.84033553  0.29597696  0.15181432     0.64900
H1056       H  0.81260635  0.26880428  0.18716145     0.12700
N1057       N  0.76319751  0.21365256  0.12970898     0.61500
H1058       H  0.78814810  0.24362311  0.09411020     0.08900
O1059       O  0.82364166  0.37709511  0.08923674    -0.40000
O1060       O  0.78166847  0.36609202  0.08296547    -0.39100
O1061       O  0.82014808  0.23550279  0.05421678    -0.39100
O1062       O  0.86063673  0.24500607  0.06790301    -0.36900
O1063       O  0.77176814  0.19035639  0.12421616    -0.37800
O1064       O  0.73959630  0.21967982  0.12299381    -0.33900
O1065       O  0.83288324  0.31865739  0.16065438    -0.35300
O1066       O  0.86411260  0.28863709  0.15621580    -0.39600
C1067       C  0.09146116  0.34505502  0.80931531    -0.13300
C1068       C  0.09114589  0.32014264  0.82240076     0.17100
C1069       C  0.06693074  0.31103661  0.83415472     0.03400
C1070       C  0.04294775  0.32520793  0.82964436    -0.11800
C1071       C  0.04281693  0.34803786  0.81306941    -0.02900
C1072       C  0.06767883  0.35896964  0.80449347     0.02600
C1073       C  0.11354757  0.30155093  0.81585670     0.09500
N1074       N  0.06569530  0.28585112  0.84784463     0.65800
H1075       H  0.02411181  0.31643610  0.83618061     0.18700
N1076       N  0.06892119  0.38221325  0.78772027     0.76300
H1077       H  0.10960216  0.35189875  0.79964149     0.10200
C1078       C  0.11466609  0.29073401  0.78971708     0.03900
C1079       C  0.13818751  0.27916583  0.78029023    -0.04800
C1080       C  0.16095292  0.27643709  0.79661902    -0.23200
C1081       C  0.15928169  0.28510959  0.82373142     0.13200
C1082       C  0.13579273  0.29829434  0.83298094    -0.12300
N1083       N  0.09244464  0.29287674  0.77170557     0.64900
H1084       H  0.13887088  0.27320855  0.75949400     0.12700
N1085       N  0.18123810  0.28167316  0.84176745     0.61500
H1086       H  0.13524291  0.30662320  0.85306978     0.08900
O1087       O  0.07139635  0.37894099  0.76268203    -0.40000
O1088       O  0.07560534  0.40464780  0.79806677    -0.39100
O1089       O  0.06386728  0.28579949  0.87311578    -0.39100
O1090       O  0.06027447  0.26452986  0.83478891    -0.36900
O1091       O  0.18125307  0.26131975  0.85681711    -0.37800
O1092       O  0.19604437  0.30168029  0.84769215    -0.33900
O1093       O  0.09350498  0.30986719  0.75299417    -0.35300
O1094       O  0.07538753  0.27387131  0.77047535    -0.39600
C1095       C  0.83210659  0.40009110  0.17124612    -0.13300
C1096       C  0.83426314  0.39143282  0.19797149     0.17100
C1097       C  0.84309969  0.41012131  0.21767425     0.03400
C1098       C  0.84442068  0.43750965  0.21146055    -0.11800
C1099       C  0.83658698  0.44667243  0.18609180    -0.02900
C1100       C  0.83253477  0.42766795  0.16521271     0.02600
C1101       C  0.82181297  0.36519051  0.20562766     0.09500
N1102       N  0.84768952  0.40232874  0.24481948     0.65800
H1103       H  0.84849210  0.45191317  0.22741818     0.18700
N1104       N  0.82550913  0.43576093  0.13871054     0.76300
H1105       H  0.82695057  0.38572561  0.15558986     0.10200
C1106       C  0.79531423  0.35883196  0.19747985     0.03900
C1107       C  0.78289044  0.33540105  0.20639964    -0.04800
C1108       C  0.79546529  0.31802577  0.22450709    -0.23200
C1109       C  0.82235160  0.32369082  0.23201511     0.13200
C1110       C  0.83533295  0.34708678  0.22237160    -0.12300
N1111       N  0.77988960  0.37656401  0.18119226     0.64900
H1112       H  0.76260359  0.33155398  0.19961923     0.12700
N1113       N  0.83692888  0.30609517  0.24908617     0.61500
H1114       H  0.85584453  0.35123063  0.22821859     0.08900
O1115       O  0.80106011  0.43572878  0.13201618    -0.40000
O1116       O  0.84323306  0.43502322  0.12057626    -0.39100
O1117       O  0.87156235  0.40042950  0.25305691    -0.39100
O1118       O  0.82888120  0.40431409  0.26172346    -0.36900
O1119       O  0.85224303  0.28881539  0.23855445    -0.37800
O1120       O  0.84031816  0.31268373  0.27339179    -0.33900
O1121       O  0.77447226  0.36960656  0.15734381    -0.35300
O1122       O  0.76605471  0.39466945  0.19240937    -0.39600
C1123       C  0.07938037  0.68146204  0.18497129    -0.13300
C1124       C  0.09902939  0.66233078  0.19132391     0.17100
C1125       C  0.09065055  0.63501777  0.19413483     0.03400
C1126       C  0.06317325  0.62802104  0.19257308    -0.11800
C1127       C  0.04365197  0.64754699  0.18750274    -0.02900
C1128       C  0.05218042  0.67426827  0.18248365     0.02600
C1129       C  0.12696507  0.67219492  0.19811385     0.09500
N1130       N  0.10948937  0.61417300  0.19952075     0.65800
H1131       H  0.05692685  0.60755629  0.19686787     0.18700
N1132       N  0.03319225  0.69506296  0.17743771     0.76300
H1133       H  0.08462193  0.70253016  0.18390808     0.10200
C1134       C  0.14049560  0.69184165  0.18246562     0.03900
C1135       C  0.16435214  0.70381612  0.19167886    -0.04800
C1136       C  0.17544699  0.69745990  0.21669520    -0.23200
C1137       C  0.16274259  0.67712363  0.23201333     0.13200
C1138       C  0.13873913  0.66485735  0.22271746    -0.12300
N1139       N  0.12990589  0.70103382  0.15756642     0.64900
H1140       H  0.17364264  0.71921065  0.17945936     0.12700
N1141       N  0.17264910  0.66985143  0.25780798     0.61500
H1142       H  0.12843905  0.65093193  0.23573095     0.08900
O1143       O  0.03061803  0.70362717  0.15380480    -0.40000
O1144       O  0.02486676  0.70932592  0.19679175    -0.39100
O1145       O  0.11018342  0.60408481  0.22268789    -0.39100
O1146       O  0.11920393  0.60101298  0.18005431    -0.36900
O1147       O  0.16307343  0.68118586  0.27845472    -0.37800
O1148       O  0.18447252  0.64760132  0.26021773    -0.33900
O1149       O  0.12067980  0.72463850  0.15641158    -0.35300
O1150       O  0.13771276  0.68987226  0.13617637    -0.39600
C1151       C  0.19580208  0.42866310  0.81979589    -0.13300
C1152       C  0.19755682  0.40833824  0.83909367     0.17100
C1153       C  0.19457571  0.41506335  0.86646284     0.03400
C1154       C  0.19033248  0.44199509  0.87415987    -0.11800
C1155       C  0.18914611  0.46236328  0.85486492    -0.02900
C1156       C  0.19196244  0.45554802  0.82740659     0.02600
C1157       C  0.20368279  0.38066050  0.82963440     0.09500
N1158       N  0.19663941  0.39499550  0.88670509     0.65800
H1159       H  0.18922995  0.44720157  0.89523860     0.18700
N1160       N  0.19361950  0.47590694  0.80725163     0.76300
H1161       H  0.19870547  0.42378859  0.79879830     0.10200
C1162       C  0.18563711  0.36692456  0.81251323     0.03900
C1163       C  0.19409234  0.34413744  0.79798733    -0.04800
C1164       C  0.22022935  0.33407002  0.80115775    -0.23200
C1165       C  0.23782535  0.34715858  0.81952928     0.13200
C1166       C  0.22946984  0.37036756  0.83343257    -0.12300
N1167       N  0.15881056  0.37650103  0.80956168     0.64900
H1168       H  0.18019493  0.33424630  0.78421347     0.12700
N1169       N  0.26502249  0.33874525  0.82249372     0.61500
H1170       H  0.24369074  0.38127073  0.84601368     0.08900
O1171       O  0.21642573  0.48486607  0.80035638    -0.40000
O1172       O  0.17381583  0.47945393  0.79194613    -0.39100
O1173       O  0.21882690  0.39186762  0.89844710    -0.39100
O1174       O  0.17546432  0.38557469  0.89716909    -0.36900
O1175       O  0.28303771  0.34957932  0.80820083    -0.37800
O1176       O  0.27173026  0.32653419  0.84352881    -0.33900
O1177       O  0.14374654  0.37777443  0.82994727    -0.35300
O1178       O  0.15253280  0.38926952  0.78871907    -0.39600
C1179       C  0.16756393  0.65614734  0.08922002    -0.13300
C1180       C  0.19553202  0.65793579  0.09259816     0.17100
C1181       C  0.21227076  0.65635225  0.06993714     0.03400
C1182       C  0.20102946  0.65837261  0.04446447    -0.11800
C1183       C  0.17331530  0.66228636  0.04136882    -0.02900
C1184       C  0.15621923  0.65907817  0.06366638     0.02600
C1185       C  0.20595680  0.67140177  0.11698863     0.09500
N1186       N  0.24086334  0.65690259  0.07251905     0.65800
H1187       H  0.21428969  0.66047093  0.02740067     0.18700
N1188       N  0.12777891  0.66198583  0.06133044     0.76300
H1189       H  0.15470981  0.65562234  0.10641836     0.10200
C1190       C  0.20600891  0.69976612  0.11818577     0.03900
C1191       C  0.21763444  0.71310014  0.13983872    -0.04800
C1192       C  0.22944923  0.69900122  0.16108732    -0.23200
C1193       C  0.22886391  0.67038811  0.16027705     0.13200
C1194       C  0.21721125  0.65680160  0.13809684    -0.12300
N1195       N  0.19510978  0.71559395  0.09700747     0.64900
H1196       H  0.21759959  0.73491081  0.13952362     0.12700
N1197       N  0.23976363  0.65476926  0.18151668     0.61500
H1198       H  0.21717355  0.63500596  0.13723256     0.08900
O1199       O  0.11738309  0.68452498  0.06673976    -0.40000
O1200       O  0.11304783  0.64108434  0.06108919    -0.39100
O1201       O  0.25378480  0.63551524  0.06819505    -0.39100
O1202       O  0.25321751  0.67929266  0.07256053    -0.36900
O1203       O  0.26239625  0.64395605  0.17824561    -0.37800
O1204       O  0.22414472  0.64572423  0.19936615    -0.33900
O1205       O  0.17293105  0.72719373  0.10069462    -0.35300
O1206       O  0.21066791  0.72416692  0.07888348    -0.39600
C1207       C  0.07511029  0.49040778  0.93591765    -0.13300
C1208       C  0.07480294  0.51122917  0.91700297     0.17100
C1209       C  0.05252445  0.52866573  0.91674979     0.03400
C1210       C  0.03185234  0.52567423  0.93581008    -0.11800
C1211       C  0.03221531  0.50504145  0.95496761    -0.02900
C1212       C  0.05420925  0.48698556  0.95467296     0.02600
C1213       C  0.09815626  0.51379830  0.89813437     0.09500
N1214       N  0.04960046  0.54856937  0.89645240     0.65800
H1215       H  0.01504863  0.53929056  0.93533600     0.18700
N1216       N  0.05617630  0.46516116  0.97314252     0.76300
H1217       H  0.09190204  0.47674341  0.93627872     0.10200
C1218       C  0.11737208  0.53478858  0.90066929     0.03900
C1219       C  0.14151349  0.53371593  0.88622631    -0.04800
C1220       C  0.14745001  0.51230039  0.86843894    -0.23200
C1221       C  0.12735781  0.49203442  0.86457636     0.13200
C1222       C  0.10332303  0.49280614  0.87968920    -0.12300
N1223       N  0.11379278  0.55675287  0.91901080     0.64900
H1224       H  0.15627080  0.54939078  0.89001934     0.12700
N1225       N  0.13006133  0.47118716  0.84478436     0.61500
H1226       H  0.08867639  0.47673735  0.87719202     0.08900
O1227       O  0.05368549  0.44141399  0.96402489    -0.40000
O1228       O  0.06974313  0.46871963  0.99428703    -0.39100
O1229       O  0.03701123  0.54218664  0.87531558    -0.39100
O1230       O  0.05134177  0.57317658  0.90303741    -0.36900
O1231       O  0.13146963  0.44700769  0.85241572    -0.37800
O1232       O  0.12176370  0.47570101  0.82133928    -0.33900
O1233       O  0.12790793  0.55742205  0.93999213    -0.35300
O1234       O  0.10547046  0.57877690  0.90985386    -0.39600
C1235       C  0.04745132  0.59074713  0.99810333    -0.13300
C1236       C  0.07427017  0.58211877  0.99884448     0.17100
C1237       C  0.07838124  0.55403599  0.00314303     0.03400
C1238       C  0.05624840  0.53608468  0.00334003    -0.11800
C1239       C  0.02995110  0.54458909  0.99802865    -0.02900
C1240       C  0.02574913  0.57262685  0.99594454     0.02600
C1241       C  0.09651497  0.60305099  0.99528860     0.09500
N1242       N  0.10433821  0.54318837  0.00845837     0.65800
H1243       H  0.05972445  0.51489495  0.00732652     0.18700
N1244       N  0.99991549  0.58340744  0.99033103     0.76300
H1245       H  0.04299791  0.61201643  0.99848846     0.10200
C1246       C  0.09290201  0.62616132  0.97879327     0.03900
C1247       C  0.11184316  0.64717476  0.97904547    -0.04800
C1248       C  0.13658696  0.64467530  0.99194143    -0.23200
C1249       C  0.14232126  0.61993333  0.00457037     0.13200
C1250       C  0.12147952  0.60098366  0.00842701    -0.12300
N1251       N  0.07088765  0.62837043  0.96053766     0.64900
H1252       H  0.10712659  0.66564051  0.96849984     0.12700
N1253       N  0.16933626  0.61316666  0.01182486     0.61500
H1254       H  0.12548045  0.58410659  0.02198855     0.08900
O1255       O  0.99020200  0.60036492  0.00663253    -0.40000
O1256       O  0.99218867  0.58375870  0.96622165    -0.39100
O1257       O  0.10955576  0.53410060  0.03144383    -0.39100
O1258       O  0.12186041  0.54190509  0.99021036    -0.36900
O1259       O  0.18872352  0.62013775  0.99695125    -0.37800
O1260       O  0.17377200  0.59811853  0.03163538    -0.33900
O1261       O  0.05354040  0.64636744  0.96466666    -0.35300
O1262       O  0.07364105  0.61908302  0.93704376    -0.39600
C1263       C  0.97150144  0.59494312  0.12525683    -0.13300
C1264       C  0.99256901  0.59750842  0.10671938     0.17100
C1265       C  0.01200070  0.61810042  0.11130721     0.03400
C1266       C  0.01075951  0.63430463  0.13476104    -0.11800
C1267       C  0.99033202  0.63083611  0.15414220    -0.02900
C1268       C  0.96998780  0.61127867  0.14838384     0.02600
C1269       C  0.99201753  0.57940648  0.08230903     0.09500
N1270       N  0.03252675  0.62382872  0.09203672     0.65800
H1271       H  0.02590224  0.64963817  0.13767311     0.18700
N1272       N  0.94756180  0.60707838  0.16572688     0.76300
H1273       H  0.95598857  0.57986125  0.12186934     0.10200
C1274       C  0.01228163  0.56047498  0.07629572     0.03900
C1275       C  0.00907971  0.54235271  0.05461244    -0.04800
C1276       C  0.98629570  0.54265086  0.03785574    -0.23200
C1277       C  0.96548533  0.56088840  0.04461435     0.13200
C1278       C  0.96868483  0.57892309  0.06641599    -0.12300
N1279       N  0.03577437  0.55824677  0.09252114     0.64900
H1280       H  0.02456692  0.52764388  0.05096382     0.12700
N1281       N  0.94081494  0.56162606  0.02998634     0.61500
H1282       H  0.95259937  0.59270495  0.07106672     0.08900
O1283       O  0.94810958  0.58763546  0.18190446    -0.40000
O1284       O  0.92509822  0.61627991  0.15872633    -0.39100
O1285       O  0.02764345  0.64050221  0.07371722    -0.39100
O1286       O  0.05668349  0.61945800  0.09815059    -0.36900
O1287       O  0.93978184  0.57529151  0.00877727    -0.37800
O1288       O  0.91919770  0.55669041  0.04239166    -0.33900
O1289       O  0.03556661  0.54148368  0.11145011    -0.35300
O1290       O  0.05809814  0.56545066  0.08271531    -0.39600
C1291       C  0.89926281  0.49356106  0.05271073    -0.13300
C1292       C  0.90882292  0.49479425  0.07928228     0.17100
C1293       C  0.93720330  0.49563800  0.08277529     0.03400
C1294       C  0.95437077  0.49627918  0.06039823    -0.11800
C1295       C  0.94458679  0.49914417  0.03415906    -0.02900
C1296       C  0.91630338  0.49740107  0.03047792     0.02600
C1297       C  0.88874911  0.49508196  0.10228644     0.09500
N1298       N  0.94949098  0.49732857  0.10863952     0.65800
H1299       H  0.97576934  0.49581002  0.06378531     0.18700
N1300       N  0.90393606  0.50128197  0.00491226     0.76300
H1301       H  0.87822355  0.49058796  0.04894873     0.10200
C1302       C  0.86331759  0.50787271  0.10027535     0.03900
C1303       C  0.84443200  0.50567052  0.12099282    -0.04800
C1304       C  0.85092796  0.49429087  0.14570081    -0.23200
C1305       C  0.87686306  0.48316649  0.14876887     0.13200
C1306       C  0.89441000  0.48189487  0.12658218    -0.12300
N1307       N  0.85661599  0.52500387  0.07839469     0.64900
H1308       H  0.82473050  0.51396996  0.11792004     0.12700
N1309       N  0.88636317  0.47437704  0.17439180     0.61500
H1310       H  0.91279817  0.47089497  0.12886827     0.08900
O1311       O  0.88637414  0.48442081  0.99703118    -0.40000
O1312       O  0.90357259  0.52477607  0.99535271    -0.39100
O1313       O  0.96137107  0.47684986  0.11749444    -0.39100
O1314       O  0.95602129  0.52032138  0.11777316    -0.36900
O1315       O  0.88393638  0.48946152  0.19481305    -0.37800
O1316       O  0.89967181  0.45289735  0.17617495    -0.33900
O1317       O  0.83787752  0.51777479  0.06275298    -0.35300
O1318       O  0.86247947  0.54980120  0.08030459    -0.39600
C1319       C  0.91001650  0.43122089  0.97226492    -0.13300
C1320       C  0.90939127  0.41565648  0.99564059     0.17100
C1321       C  0.92899242  0.42064719  0.01549757     0.03400
C1322       C  0.94751020  0.44194834  0.01251115    -0.11800
C1323       C  0.94706605  0.45905926  0.99010049    -0.02900
C1324       C  0.92844988  0.45278947  0.96920959     0.02600
C1325       C  0.88769658  0.39489085  0.99894439     0.09500
N1326       N  0.93113026  0.40373396  0.03844466     0.65800
H1327       H  0.96230099  0.44534882  0.02806829     0.18700
N1328       N  0.92661536  0.46858423  0.94539371     0.76300
H1329       H  0.89531980  0.42732295  0.95670550     0.10200
C1330       C  0.86661658  0.39846863  0.01754051     0.03900
C1331       C  0.84564774  0.37949083  0.01890649    -0.04800
C1332       C  0.84465606  0.35657620  0.00201030    -0.23200
C1333       C  0.86576429  0.35301305  0.98318262     0.13200
C1334       C  0.88694311  0.37213382  0.98187618    -0.12300
N1335       N  0.86491398  0.42222960  0.03392598     0.64900
H1336       H  0.82932084  0.38336445  0.03260895     0.12700
N1337       N  0.86666830  0.33011623  0.96558531     0.61500
H1338       H  0.90283179  0.36926759  0.96735395     0.08900
O1339       O  0.92947029  0.45685887  0.92297642    -0.40000
O1340       O  0.91362179  0.49030518  0.94621948    -0.39100
O1341       O  0.94692268  0.38398317  0.03741377    -0.39100
O1342       O  0.92418423  0.41288946  0.06110389    -0.36900
O1343       O  0.88041657  0.31011131  0.97257008    -0.37800
O1344       O  0.86236935  0.33355926  0.94088614    -0.33900
O1345       O  0.85134468  0.44178423  0.02550439    -0.35300
O1346       O  0.86889997  0.42027661  0.05883869    -0.39600
C1347       C  0.99381376  0.42188552  0.92481999    -0.13300
C1348       C  0.99090761  0.43399672  0.89954260     0.17100
C1349       C  0.98649807  0.46205526  0.89855882     0.03400
C1350       C  0.98614437  0.47739716  0.92230986    -0.11800
C1351       C  0.98934183  0.46552000  0.94758522    -0.02900
C1352       C  0.99298097  0.43716801  0.94890502     0.02600
C1353       C  0.99109033  0.41668561  0.87475672     0.09500
N1354       N  0.97953744  0.47498830  0.87405141     0.65800
H1355       H  0.98214804  0.49879195  0.92109174     0.18700
N1356       N  0.99557711  0.42347175  0.97414164     0.76300
H1357       H  0.99688181  0.40027282  0.92576465     0.10200
C1358       C  0.01074677  0.41957900  0.85448355     0.03900
C1359       C  0.01050036  0.40222974  0.83210704    -0.04800
C1360       C  0.99159862  0.38111734  0.82940837    -0.23200
C1361       C  0.97158324  0.37843072  0.84948675     0.13200
C1362       C  0.97155677  0.39615414  0.87179917    -0.12300
N1363       N  0.03229243  0.43874937  0.85686140     0.64900
H1364       H  0.02557508  0.40494750  0.81689398     0.12700
N1365       N  0.95145930  0.35772528  0.84828197     0.61500
H1366       H  0.95635457  0.39365331  0.88709744     0.08900
O1367       O  0.00692646  0.43479844  0.99397361    -0.40000
O1368       O  0.98660781  0.39967478  0.97663920    -0.39100
O1369       O  0.95501964  0.47629625  0.86779232    -0.39100
O1370       O  0.99579870  0.49185123  0.86407230    -0.36900
O1371       O  0.95582017  0.33567088  0.85990453    -0.37800
O1372       O  0.92744126  0.36446763  0.84408408    -0.33900
O1373       O  0.05380070  0.43139518  0.86786565    -0.35300
O1374       O  0.03322022  0.45824231  0.84074083    -0.39600
C1375       C  0.35291716  0.81590312  0.09159407    -0.13300
C1376       C  0.32565389  0.82268055  0.08945431     0.17100
C1377       C  0.31577150  0.83120892  0.06435868     0.03400
C1378       C  0.33236547  0.83007039  0.04158521    -0.11800
C1379       C  0.35843579  0.81984014  0.04325461    -0.02900
C1380       C  0.36931698  0.81445011  0.06869463     0.02600
C1381       C  0.30753155  0.81603737  0.11231937     0.09500
N1382       N  0.28840705  0.83891795  0.06106628     0.65800
H1383       H  0.32378781  0.83421218  0.02209658     0.18700
N1384       N  0.39642714  0.80557629  0.07116806     0.76300
H1385       H  0.36093500  0.80967901  0.11079260     0.10200
C1386       C  0.29330611  0.79129304  0.11238696     0.03900
C1387       C  0.28085642  0.78233175  0.13584143    -0.04800
C1388       C  0.28228914  0.79726425  0.15988023    -0.23200
C1389       C  0.29454169  0.82322754  0.15940181     0.13200
C1390       C  0.30746081  0.83215222  0.13573047    -0.12300
N1391       N  0.29349202  0.77356660  0.08959459     0.64900
H1392       H  0.27133132  0.76260142  0.13562119     0.12700
N1393       N  0.29513517  0.84033708  0.18265697     0.61500
H1394       H  0.31818529  0.85123502  0.13588514     0.08900
O1395       O  0.40160351  0.78069414  0.07045654    -0.40000
O1396       O  0.41542010  0.82266532  0.07120832    -0.39100
O1397       O  0.28312273  0.86368028  0.05908466    -0.39100
O1398       O  0.27179490  0.82176804  0.05190713    -0.36900
O1399       O  0.27551137  0.85573403  0.18692681    -0.37800
O1400       O  0.31752589  0.84629720  0.19310612    -0.33900
O1401       O  0.31160961  0.75599899  0.08785385    -0.35300
O1402       O  0.27209045  0.77014526  0.07638171    -0.39600
C1403       C  0.41284391  0.86244751  0.19438850    -0.13300
C1404       C  0.40965037  0.84254603  0.21415424     0.17100
C1405       C  0.43282816  0.83140396  0.22559558     0.03400
C1406       C  0.45833573  0.84099326  0.21827617    -0.11800
C1407       C  0.46182943  0.86172908  0.19935771    -0.02900
C1408       C  0.43862218  0.87197766  0.18677665     0.02600
C1409       C  0.38276338  0.82985793  0.21890376     0.09500
N1410       N  0.43094294  0.80955516  0.24406452     0.65800
H1411       H  0.47566822  0.83203165  0.22756923     0.18700
N1412       N  0.44056798  0.89161530  0.16604975     0.76300
H1413       H  0.39530394  0.87014812  0.18438806     0.10200
C1414       C  0.36546307  0.83725386  0.24023914     0.03900
C1415       C  0.34167799  0.82225561  0.24508951    -0.04800
C1416       C  0.33485192  0.79964860  0.22912032    -0.23200
C1417       C  0.35190355  0.79317089  0.20700197     0.13200
C1418       C  0.37528703  0.80830876  0.20220290    -0.12300
N1419       N  0.37180302  0.85963259  0.25742976     0.64900
H1420       H  0.32909336  0.82775554  0.26191501     0.12700
N1421       N  0.34637700  0.77093981  0.18923996     0.61500
H1422       H  0.38824385  0.80256461  0.18571326     0.08900
O1423       O  0.43507090  0.91584820  0.17156867    -0.40000
O1424       O  0.43931606  0.88372429  0.14190886    -0.39100
O1425       O  0.43421022  0.78574341  0.23551538    -0.39100
O1426       O  0.43325114  0.81441809  0.26887046    -0.36900
O1427       O  0.33903672  0.77580438  0.16555337    -0.37800
O1428       O  0.35700629  0.74846894  0.19402145    -0.33900
O1429       O  0.36023754  0.88182323  0.25362826    -0.35300
O1430       O  0.38240304  0.85526850  0.27995218    -0.39600
C1431       C  0.42472272  0.21294984  0.82110093    -0.13300
C1432       C  0.40575870  0.22194907  0.84024997     0.17100
C1433       C  0.41493547  0.22726124  0.86668891     0.03400
C1434       C  0.44227925  0.22455909  0.87291980    -0.11800
C1435       C  0.46064363  0.21408404  0.85427624    -0.02900
C1436       C  0.45176535  0.20881786  0.82790635     0.02600
C1437       C  0.37694694  0.22480423  0.83161274     0.09500
N1438       N  0.39689662  0.23378529  0.88803415     0.65800
H1439       H  0.44912491  0.23009090  0.89285811     0.18700
N1440       N  0.47058293  0.20235322  0.80717305     0.76300
H1441       H  0.41856289  0.20946927  0.80045218     0.10200
C1442       C  0.36183702  0.24877127  0.83489957     0.03900
C1443       C  0.33649402  0.25108600  0.82264339    -0.04800
C1444       C  0.32633240  0.23083564  0.80549780    -0.23200
C1445       C  0.34098580  0.20655628  0.80293359     0.13200
C1446       C  0.36535602  0.20353482  0.81665693    -0.12300
N1447       N  0.37283716  0.27229443  0.84768040     0.64900
H1448       H  0.32601328  0.27002104  0.82442665     0.12700
N1449       N  0.33225508  0.18486277  0.78585910     0.61500
H1450       H  0.37621996  0.18489926  0.81408959     0.08900
O1451       O  0.48136439  0.22110681  0.79381104    -0.40000
O1452       O  0.47900123  0.17852896  0.80457001    -0.39100
O1453       O  0.38623935  0.21463597  0.90093092    -0.39100
O1454       O  0.39928016  0.25653794  0.89945163    -0.36900
O1455       O  0.33854135  0.18548108  0.76131473    -0.37800
O1456       O  0.32767330  0.16223290  0.79639725    -0.33900
O1457       O  0.38684514  0.28829768  0.83374622    -0.35300
O1458       O  0.36126199  0.28137639  0.86839113    -0.39600
C1459       C  0.27905101  0.14619130  0.84140131    -0.13300
C1460       C  0.28610714  0.12329820  0.82619430     0.17100
C1461       C  0.28102777  0.12289720  0.79839434     0.03400
C1462       C  0.27109144  0.14576448  0.78599095    -0.11800
C1463       C  0.26594797  0.16956519  0.80058307    -0.02900
C1464       C  0.26878639  0.16929221  0.82884900     0.02600
C1465       C  0.29613255  0.09877264  0.83939156     0.09500
N1466       N  0.28573327  0.09938242  0.78226657     0.65800
H1467       H  0.26791673  0.14492929  0.76453196     0.18700
N1468       N  0.26148530  0.19196006  0.84511423     0.76300
H1469       H  0.28156958  0.14613095  0.86294171     0.10200
C1470       C  0.32263532  0.08967737  0.83545811     0.03900
C1471       C  0.32881487  0.06266911  0.84039805    -0.04800
C1472       C  0.30882653  0.04443810  0.84873174    -0.23200
C1473       C  0.28348657  0.05468343  0.85659483     0.13200
C1474       C  0.27736753  0.08173409  0.85176893    -0.12300
N1475       N  0.34305743  0.10691485  0.82460336     0.64900
H1476       H  0.34830389  0.05549309  0.83469939     0.12700
N1477       N  0.26303898  0.03760413  0.86770871     0.61500
H1478       H  0.25721688  0.08875772  0.85555962     0.08900
O1479       O  0.27976511  0.20703884  0.85467611    -0.40000
O1480       O  0.23847898  0.19220661  0.85582473    -0.39100
O1481       O  0.26631599  0.08348632  0.77743692    -0.39100
O1482       O  0.30579609  0.09915652  0.76674701    -0.36900
O1483       O  0.26042419  0.03694790  0.89290203    -0.37800
O1484       O  0.24331181  0.03062996  0.85323132    -0.33900
O1485       O  0.35906695  0.11874042  0.84055146    -0.35300
O1486       O  0.35004189  0.10373450  0.80043003    -0.39600
C1487       C  0.67830060  0.24109273  0.11554947    -0.13300
C1488       C  0.66350432  0.21662552  0.11595739     0.17100
C1489       C  0.65690723  0.20563829  0.14127252     0.03400
C1490       C  0.66775080  0.21709816  0.16476489    -0.11800
C1491       C  0.68462933  0.24004172  0.16409836    -0.02900
C1492       C  0.68815830  0.25320255  0.13929751     0.02600
C1493       C  0.66061162  0.20056890  0.09033201     0.09500
N1494       N  0.63981370  0.18237235  0.14377086     0.65800
H1495       H  0.66391921  0.20726157  0.18328629     0.18700
N1496       N  0.70271491  0.27814386  0.13740528     0.76300
H1497       H  0.68412558  0.24988350  0.09680534     0.10200
C1498       C  0.65437385  0.21264542  0.06542727     0.03900
C1499       C  0.66148922  0.19964591  0.04125834    -0.04800
C1500       C  0.67390208  0.17432574  0.04128240    -0.23200
C1501       C  0.67598752  0.16053496  0.06568184     0.13200
C1502       C  0.67000878  0.17382342  0.08989789    -0.12300
N1503       N  0.64219356  0.23863831  0.06416919     0.64900
H1504       H  0.65959499  0.21044050  0.02261937     0.12700
N1505       N  0.68717131  0.13412335  0.06650931     0.61500
H1506       H  0.67546712  0.16403787  0.10821810     0.08900
O1507       O  0.68973450  0.29985209  0.13621786    -0.40000
O1508       O  0.72693960  0.27799330  0.12988288    -0.39100
O1509       O  0.64982659  0.16042403  0.15140477    -0.39100
O1510       O  0.61491281  0.18588912  0.14680568    -0.36900
O1511       O  0.71184479  0.13146058  0.07151353    -0.37800
O1512       O  0.67158596  0.11398171  0.06859650    -0.33900
O1513       O  0.65590309  0.25850909  0.05594946    -0.35300
O1514       O  0.61689209  0.23990922  0.06341574    -0.39600
C1515       C  0.67550663  0.08769957  0.18411543    -0.13300
C1516       C  0.66804380  0.07936427  0.21006638     0.17100
C1517       C  0.66331862  0.05160201  0.21463430     0.03400
C1518       C  0.66959491  0.03271341  0.19452744    -0.11800
C1519       C  0.67989831  0.04109209  0.16969302    -0.02900
C1520       C  0.68113158  0.06871831  0.16388838     0.02600
C1521       C  0.66932213  0.09977365  0.23216829     0.09500
N1522       N  0.65290536  0.04211623  0.23962239     0.65800
H1523       H  0.66833220  0.01137308  0.19901463     0.18700
N1524       N  0.69021110  0.07750984  0.13814648     0.76300
H1525       H  0.67866003  0.10898979  0.18004958     0.10200
C1526       C  0.69096038  0.10005106  0.25055653     0.03900
C1527       C  0.69698271  0.12358970  0.26533859    -0.04800
C1528       C  0.68246071  0.14731752  0.26147598    -0.23200
C1529       C  0.65895676  0.14604094  0.24567509     0.13200
C1530       C  0.65257639  0.12237538  0.23112534    -0.12300
N1531       N  0.70964953  0.07836441  0.25136980     0.64900
H1532       H  0.71536404  0.12436555  0.27689739     0.12700
N1533       N  0.64219901  0.16907335  0.24298614     0.61500
H1534       H  0.63577517  0.12239424  0.21740525     0.08900
O1535       O  0.67578950  0.07285024  0.11776114    -0.40000
O1536       O  0.71451829  0.08430316  0.13502799    -0.39100
O1537       O  0.62800792  0.03734164  0.24144576    -0.39100
O1538       O  0.66856456  0.03070026  0.25574073    -0.36900
O1539       O  0.64332549  0.18265641  0.22173635    -0.37800
O1540       O  0.62195432  0.17132885  0.25809908    -0.33900
O1541       O  0.72925115  0.07845583  0.23525781    -0.35300
O1542       O  0.71097562  0.06427009  0.27228951    -0.39600
C1543       C  0.42694494  0.02902490  0.93364499    -0.13300
C1544       C  0.42418656  0.00820627  0.91452317     0.17100
C1545       C  0.44415528  0.98823217  0.91306370     0.03400
C1546       C  0.46539175  0.98845830  0.93149778    -0.11800
C1547       C  0.46777054  0.00864316  0.95134258    -0.02900
C1548       C  0.44852344  0.02958574  0.95187817     0.02600
C1549       C  0.40078724  0.00794222  0.89586652     0.09500
N1550       N  0.44305662  0.96725539  0.89319848     0.65800
H1551       H  0.48022561  0.97274010  0.93025672     0.18700
N1552       N  0.44961460  0.05093494  0.97140493     0.76300
H1553       H  0.41214633  0.04479980  0.93459985     0.10200
C1554       C  0.37399705  0.00622364  0.90524897     0.03900
C1555       C  0.35267126  0.00501392  0.88691468    -0.04800
C1556       C  0.35739599  0.00544501  0.85920385    -0.23200
C1557       C  0.38400345  0.00857647  0.84978075     0.13200
C1558       C  0.40537868  0.00974197  0.86811963    -0.12300
N1559       N  0.36800726  0.00450343  0.93323851     0.64900
H1560       H  0.33236122  0.00275499  0.89426266     0.12700
N1561       N  0.38970978  0.01180922  0.82186593     0.61500
H1562       H  0.42561891  0.01230218  0.86067014     0.08900
O1563       O  0.43873743  0.04730676  0.99399885    -0.40000
O1564       O  0.45306526  0.07482561  0.96341181    -0.39100
O1565       O  0.45719698  0.96947800  0.87225858    -0.39100
O1566       O  0.43392271  0.94432611  0.89956077    -0.36900
O1567       O  0.39088360  0.03538570  0.81250086    -0.37800
O1568       O  0.40161501  0.99310080  0.80945905    -0.33900
O1569       O  0.35844736  0.02485714  0.94515467    -0.35300
O1570       O  0.36494094  0.98150644  0.94357376    -0.39600
C1571       C  0.39744092  0.88649489  0.97007579    -0.13300
C1572       C  0.42216117  0.88878176  0.98361651     0.17100
C1573       C  0.42958887  0.86819620  0.00136254     0.03400
C1574       C  0.41306192  0.84553514  0.00457374    -0.11800
C1575       C  0.38825582  0.84323918  0.99145629    -0.02900
C1576       C  0.38034586  0.86402720  0.97400226     0.02600
C1577       C  0.43850891  0.91399252  0.98159687     0.09500
N1578       N  0.45242335  0.87116707  0.01844458     0.65800
H1579       H  0.41941390  0.82976003  0.01779061     0.18700
N1580       N  0.35467838  0.86346192  0.96118051     0.76300
H1581       H  0.39110725  0.90251125  0.95703082     0.10200
C1582       C  0.46552995  0.91401274  0.97296132     0.03900
C1583       C  0.48126406  0.93749874  0.97567708    -0.04800
C1584       C  0.47053093  0.96147055  0.98623081    -0.23200
C1585       C  0.44277577  0.96199825  0.99271161     0.13200
C1586       C  0.42725751  0.93825991  0.99058691    -0.12300
N1587       N  0.47706318  0.89080352  0.96037138     0.64900
H1588       H  0.50204067  0.93710702  0.96939248     0.12700
N1589       N  0.42971996  0.98602498  0.00162245     0.61500
H1590       H  0.40643526  0.93862091  0.99679422     0.08900
O1591       O  0.35357353  0.86068471  0.93599211    -0.40000
O1592       O  0.33489861  0.87363344  0.97333996    -0.39100
O1593       O  0.44990182  0.88452095  0.03995734    -0.39100
O1594       O  0.47137248  0.85456078  0.01633124    -0.36900
O1595       O  0.41266337  0.99637753  0.98620383    -0.37800
O1596       O  0.42733961  0.99022156  0.02652292    -0.33900
O1597       O  0.47485564  0.88803679  0.93525381    -0.35300
O1598       O  0.49551782  0.87842435  0.97228119    -0.39600
C1599       C  0.64711095  0.09139011  0.98360822    -0.13300
C1600       C  0.62110047  0.10204846  0.98545459     0.17100
C1601       C  0.61851496  0.13027666  0.98941312     0.03400
C1602       C  0.64150811  0.14684913  0.99187082    -0.11800
C1603       C  0.66740563  0.13598947  0.99095455    -0.02900
C1604       C  0.67006305  0.10798297  0.98639669     0.02600
C1605       C  0.59749803  0.08294746  0.98619049     0.09500
N1606       N  0.59278488  0.14269146  0.99096206     0.65800
H1607       H  0.63912127  0.16825051  0.99504091     0.18700
N1608       N  0.69581772  0.09561052  0.98689367     0.76300
H1609       H  0.64969057  0.06987328  0.98154688     0.10200
C1610       C  0.59307770  0.06296098  0.96618008     0.03900
C1611       C  0.57229391  0.04379490  0.96911521    -0.04800
C1612       C  0.55494542  0.04417194  0.99142090    -0.23200
C1613       C  0.55941464  0.06416189  0.01149375     0.13200
C1614       C  0.58063947  0.08295002  0.00882158    -0.12300
N1615       N  0.60894187  0.06220006  0.94226393     0.64900
H1616       H  0.56950182  0.02862140  0.95372051     0.12700
N1617       N  0.54272409  0.06606429  0.03474863     0.61500
H1618       H  0.58416826  0.09738989  0.02480533     0.08900
O1619       O  0.70591208  0.08709278  0.96520254    -0.40000
O1620       O  0.70473833  0.08703280  0.00889472    -0.39100
O1621       O  0.58370461  0.14939373  0.01371683    -0.39100
O1622       O  0.58401589  0.15443453  0.97044320    -0.36900
O1623       O  0.55326484  0.06240384  0.05743845    -0.37800
O1624       O  0.52155197  0.07978354  0.03345843    -0.33900
O1625       O  0.62635091  0.04403258  0.93952117    -0.35300
O1626       O  0.60057811  0.07419000  0.92170161    -0.39600
C1627       C  0.51353296  0.06563789  0.90496279    -0.13300
C1628       C  0.51129720  0.09228530  0.91469436     0.17100
C1629       C  0.51135504  0.09613813  0.94305316     0.03400
C1630       C  0.51150902  0.07403981  0.96035056    -0.11800
C1631       C  0.51310808  0.04748411  0.95078822    -0.02900
C1632       C  0.51549955  0.04349324  0.92254427     0.02600
C1633       C  0.50707658  0.11570910  0.89585896     0.09500
N1634       N  0.51173080  0.12243035  0.95512759     0.65800
H1635       H  0.51011842  0.07776422  0.98162590     0.18700
N1636       N  0.52188864  0.01774449  0.91112328     0.76300
H1637       H  0.51365746  0.06170193  0.88373332     0.10200
C1638       C  0.52128612  0.12010640  0.87147452     0.03900
C1639       C  0.51890375  0.14491874  0.85793248    -0.04800
C1640       C  0.50315521  0.16612239  0.86827803    -0.23200
C1641       C  0.48660124  0.16012142  0.89078499     0.13200
C1642       C  0.48795048  0.13494281  0.90319349    -0.12300
N1643       N  0.53823934  0.10002552  0.85986418     0.64900
H1644       H  0.53028331  0.14782939  0.83981008     0.12700
N1645       N  0.46957576  0.17955051  0.90318529     0.61500
H1646       H  0.47462921  0.13104030  0.91976554     0.08900
O1647       O  0.50605139  0.00743813  0.89402491    -0.40000
O1648       O  0.54627680  0.01105265  0.91025651    -0.39100
O1649       O  0.49095825  0.13057394  0.96717334    -0.39100
O1650       O  0.53413398  0.13272913  0.96144067    -0.36900
O1651       O  0.47935633  0.19468149  0.92129844    -0.37800
O1652       O  0.44456189  0.17496334  0.90319883    -0.33900
O1653       O  0.52940372  0.08624288  0.84027028    -0.35300
O1654       O  0.56331102  0.10193375  0.86322219    -0.39600
C1655       C  0.52367080  0.92014095  0.05464157    -0.13300
C1656       C  0.50102427  0.92009479  0.07144229     0.17100
C1657       C  0.48072474  0.93908684  0.06672096     0.03400
C1658       C  0.48436232  0.95889641  0.04701852    -0.11800
C1659       C  0.50752881  0.96004387  0.03077819    -0.02900
C1660       C  0.52685901  0.93938981  0.03409546     0.02600
C1661       C  0.50145025  0.90507660  0.09731855     0.09500
N1662       N  0.45723353  0.93970647  0.08334405     0.65800
H1663       H  0.46937379  0.97449795  0.04521638     0.18700
N1664       N  0.54961360  0.93708724  0.01675708     0.76300
H1665       H  0.53948884  0.90573009  0.05807623     0.10200
C1666       C  0.49928746  0.87663266  0.09938457     0.03900
C1667       C  0.49946564  0.86439037  0.12482444    -0.04800
C1668       C  0.50194395  0.87998003  0.14830145    -0.23200
C1669       C  0.50443994  0.90833317  0.14614057     0.13200
C1670       C  0.50405000  0.92048040  0.12095044    -0.12300
N1671       N  0.49701780  0.85971984  0.07614182     0.64900
H1672       H  0.49832005  0.84268827  0.12627088     0.12700
N1673       N  0.50872947  0.92507017  0.16930530     0.61500
H1674       H  0.50626478  0.94212528  0.11984156     0.08900
O1675       O  0.54746812  0.92220760  0.99615411    -0.40000
O1676       O  0.57270871  0.94113937  0.02651473    -0.39100
O1677       O  0.45500944  0.95777326  0.10121298    -0.39100
O1678       O  0.44078772  0.92013232  0.08292147    -0.36900
O1679       O  0.53240236  0.93208223  0.17546280    -0.37800
O1680       O  0.48929589  0.93813139  0.17897728    -0.33900
O1681       O  0.51820300  0.85268468  0.06413829    -0.35300
O1682       O  0.47602093  0.84548800  0.07320392    -0.39600
C1683       C  0.64417070  0.98240192  0.08396240    -0.13300
C1684       C  0.62078411  0.99730681  0.08970343     0.17100
C1685       C  0.61937021  0.00992607  0.11545881     0.03400
C1686       C  0.64018104  0.00686851  0.13422705    -0.11800
C1687       C  0.66439216  0.99406001  0.12755408    -0.02900
C1688       C  0.66617912  0.98189543  0.10179141     0.02600
C1689       C  0.59793453  0.99854914  0.06940919     0.09500
N1690       N  0.59825566  0.02807209  0.12244677     0.65800
H1691       H  0.63766818  0.01601488  0.15363055     0.18700
N1692       N  0.69083476  0.97058404  0.09253737     0.76300
H1693       H  0.64589814  0.97144131  0.06522946     0.10200
C1694       C  0.60200589  0.00010921  0.04117896     0.03900
C1695       C  0.57996809  0.00009468  0.02351451    -0.04800
C1696       C  0.55325558  0.00105181  0.03271200    -0.23200
C1697       C  0.54905279  0.00014119  0.06089536     0.13200
C1698       C  0.57107291  0.99746326  0.07844836    -0.12300
N1699       N  0.62817021  0.00306310  0.02964330     0.64900
H1700       H  0.58394056  0.99986447  0.00222059     0.12700
N1701       N  0.52296458  0.00333859  0.07258730     0.61500
H1702       H  0.56687065  0.99493643  0.09941761     0.08900
O1703       O  0.69298261  0.94533634  0.08996293    -0.40000
O1704       O  0.71033618  0.98585691  0.08640503    -0.39100
O1705       O  0.58180670  0.02140325  0.14059868    -0.39100
O1706       O  0.60127758  0.05278810  0.11712848    -0.36900
O1707       O  0.51267273  0.02650719  0.07311774    -0.37800
O1708       O  0.51482913  0.98615848  0.08937415    -0.33900
O1709       O  0.63798303  0.98334005  0.01688611    -0.35300
O1710       O  0.63664157  0.02655207  0.02444018    -0.39600
C1711       C  0.78033188  0.85581567  0.32145610    -0.13300
C1712       C  0.76601340  0.87960186  0.31734115     0.17100
C1713       C  0.73831586  0.87717857  0.31067364     0.03400
C1714       C  0.72636297  0.85142608  0.30701542    -0.11800
C1715       C  0.74118754  0.82771491  0.31053139    -0.02900
C1716       C  0.76822607  0.83038445  0.31895244     0.02600
C1717       C  0.78200141  0.90548934  0.31617829     0.09500
N1718       N  0.72173721  0.90037763  0.30799746     0.65800
H1719       H  0.70554574  0.85007222  0.30101159     0.18700
N1720       N  0.78418393  0.80751870  0.32500581     0.76300
H1721       H  0.80157014  0.85667457  0.32550320     0.10200
C1722       C  0.80311239  0.91137169  0.33465500     0.03900
C1723       C  0.82324210  0.93034713  0.32823367    -0.04800
C1724       C  0.82247610  0.94445669  0.30408408    -0.23200
C1725       C  0.79934423  0.94168727  0.28771237     0.13200
C1726       C  0.78002459  0.92166314  0.29325464    -0.12300
N1727       N  0.80473334  0.89809593  0.35996598     0.64900
H1728       H  0.83975646  0.93345490  0.34196242     0.12700
N1729       N  0.79500928  0.95945909  0.26564477     0.61500
H1730       H  0.76411313  0.91808252  0.27883807     0.08900
O1731       O  0.78599225  0.80041810  0.34919380    -0.40000
O1732       O  0.80207014  0.80032791  0.30851478    -0.39100
O1733       O  0.71374350  0.90684260  0.28491624    -0.39100
O1734       O  0.70860267  0.90834351  0.32821371    -0.36900
O1735       O  0.79307492  0.98455888  0.26977092    -0.37800
O1736       O  0.79399924  0.95026407  0.24194838    -0.33900
O1737       O  0.82375939  0.88198132  0.36402475    -0.35300
O1738       O  0.79307959  0.90860271  0.37994336    -0.39600
C1739       C  0.74690217  0.87498294  0.20537141    -0.13300
C1740       C  0.72170775  0.87608824  0.19252806     0.17100
C1741       C  0.70499067  0.85301140  0.19323837     0.03400
C1742       C  0.71307321  0.83006226  0.20708618    -0.11800
C1743       C  0.73769286  0.82917286  0.22097073    -0.02900
C1744       C  0.75501244  0.85189847  0.21943630     0.02600
C1745       C  0.71475063  0.90077650  0.17700792     0.09500
N1746       N  0.67930400  0.85238136  0.18068473     0.65800
H1747       H  0.69939040  0.81298693  0.20741473     0.18700
N1748       N  0.78074494  0.85218671  0.23205688     0.76300
H1749       H  0.76031786  0.89226629  0.20465571     0.10200
C1750       C  0.69226183  0.91718680  0.18282553     0.03900
C1751       C  0.68916225  0.94194766  0.16964503    -0.04800
C1752       C  0.70859127  0.95144602  0.15150147    -0.23200
C1753       C  0.73027577  0.93439333  0.14469704     0.13200
C1754       C  0.73283511  0.90928667  0.15710354    -0.12300
N1755       N  0.67388002  0.91079202  0.20393747     0.64900
H1756       H  0.67294116  0.95499299  0.17576767     0.12700
N1757       N  0.75079049  0.94271039  0.12629562     0.61500
H1758       H  0.74994278  0.89692552  0.15211960     0.08900
O1759       O  0.78360957  0.86435076  0.25424979    -0.40000
O1760       O  0.80127091  0.84704743  0.21808076    -0.39100
O1761       O  0.67751858  0.84377359  0.15682148    -0.39100
O1762       O  0.65887371  0.85116258  0.19564620    -0.36900
O1763       O  0.74962877  0.93424248  0.10235627    -0.37800
O1764       O  0.77319827  0.95062527  0.13544532    -0.33900
O1765       O  0.67928747  0.91888050  0.22743752    -0.35300
O1766       O  0.64967107  0.90591182  0.19795005    -0.39600
C1767       C  0.88255889  0.74036201  0.21628261    -0.13300
C1768       C  0.88075730  0.71974583  0.19671771     0.17100
C1769       C  0.85530867  0.71348939  0.18580857     0.03400
C1770       C  0.83205704  0.72453085  0.19721648    -0.11800
C1771       C  0.83349330  0.74263840  0.21910214    -0.02900
C1772       C  0.85919489  0.75232355  0.22704368     0.02600
C1773       C  0.90359019  0.70064686  0.19307095     0.09500
N1774       N  0.85262679  0.69503162  0.16376284     0.65800
H1775       H  0.81271280  0.71749942  0.19001546     0.18700
N1776       N  0.86206316  0.77310319  0.24695492     0.76300
H1777       H  0.90192900  0.74585689  0.22455408     0.10200
C1778       C  0.92792575  0.70731722  0.17994563     0.03900
C1779       C  0.94917404  0.68865632  0.17922115    -0.04800
C1780       C  0.94726522  0.66389505  0.19277131    -0.23200
C1781       C  0.92297514  0.65759690  0.20634308     0.13200
C1782       C  0.90132980  0.67545576  0.20557060    -0.12300
N1783       N  0.93205732  0.73339134  0.16856573     0.64900
H1784       H  0.96795925  0.69448859  0.16994640     0.12700
N1785       N  0.92037531  0.63403028  0.22261268     0.61500
H1786       H  0.88319882  0.67031746  0.21629515     0.08900
O1787       O  0.86812360  0.76692963  0.27067790    -0.40000
O1788       O  0.86532470  0.79718922  0.23946481    -0.39100
O1789       O  0.84512660  0.67105248  0.16803934    -0.39100
O1790       O  0.85103638  0.70428661  0.14030822    -0.36900
O1791       O  0.90698468  0.61410199  0.21377951    -0.37800
O1792       O  0.92379128  0.63632386  0.24763621    -0.33900
O1793       O  0.94470046  0.75116568  0.18194718    -0.35300
O1794       O  0.92974166  0.73614961  0.14352395    -0.39600
C1795       C  0.88038822  0.72827552  0.31923403    -0.13300
C1796       C  0.88079599  0.75047388  0.33707026     0.17100
C1797       C  0.85599777  0.76105997  0.34579720     0.03400
C1798       C  0.83181513  0.75035122  0.33568308    -0.11800
C1799       C  0.83147311  0.72981852  0.31604563    -0.02900
C1800       C  0.85613624  0.71775508  0.30891636     0.02600
C1801       C  0.90707332  0.76422277  0.34304223     0.09500
N1802       N  0.85477903  0.78327217  0.36427966     0.65800
H1803       H  0.81331787  0.75894787  0.34237284     0.18700
N1804       N  0.85739012  0.69613423  0.28980642     0.76300
H1805       H  0.89896840  0.72022823  0.31169483     0.10200
C1806       C  0.92969480  0.74992512  0.35215157     0.03900
C1807       C  0.95517716  0.76226886  0.35193287    -0.04800
C1808       C  0.95912290  0.78845679  0.34193749    -0.23200
C1809       C  0.93635843  0.80346260  0.33471190     0.13200
C1810       C  0.91069156  0.79130691  0.33536588    -0.12300
N1811       N  0.92771590  0.72219082  0.35973228     0.64900
H1812       H  0.97241550  0.75032375  0.35717487     0.12700
N1813       N  0.93899028  0.82996737  0.32392978     0.61500
H1814       H  0.89398595  0.80237092  0.32745316     0.08900
O1815       O  0.86500238  0.70115565  0.26619428    -0.40000
O1816       O  0.85860651  0.67221306  0.29819528    -0.39100
O1817       O  0.85112045  0.80670155  0.35531126    -0.39100
O1818       O  0.84915384  0.77860433  0.38851440    -0.36900
O1819       O  0.93989129  0.83273329  0.29878254    -0.37800
O1820       O  0.93256540  0.84991410  0.33843444    -0.33900
O1821       O  0.93568449  0.70426299  0.34347745    -0.35300
O1822       O  0.92605643  0.71655254  0.38433102    -0.39600
C1823       C  0.72439039  0.60930256  0.31154258    -0.13300
C1824       C  0.70204367  0.61149989  0.32844212     0.17100
C1825       C  0.69482381  0.63723034  0.33816585     0.03400
C1826       C  0.70756196  0.66048186  0.32795240    -0.11800
C1827       C  0.72775299  0.65829325  0.30843005    -0.02900
C1828       C  0.73724452  0.63239660  0.30159456     0.02600
C1829       C  0.68415943  0.58744652  0.33071195     0.09500
N1830       N  0.67395289  0.64021635  0.35756231     0.65800
H1831       H  0.70055063  0.67986927  0.33378065     0.18700
N1832       N  0.75952172  0.62902260  0.28394187     0.76300
H1833       H  0.73064210  0.58967645  0.30444471     0.10200
C1834       C  0.66182237  0.58489101  0.31345793     0.03900
C1835       C  0.64942723  0.55976609  0.30952229    -0.04800
C1836       C  0.65869639  0.53669684  0.32243861    -0.23200
C1837       C  0.68020443  0.53928321  0.34081155     0.13200
C1838       C  0.69276842  0.56464091  0.34480253    -0.12300
N1839       N  0.65376405  0.60672005  0.29686195     0.64900
H1840       H  0.63359483  0.55789086  0.29475655     0.12700
N1841       N  0.69161080  0.51604185  0.35299952     0.61500
H1842       H  0.71047745  0.56610059  0.35728800     0.08900
O1843       O  0.75515787  0.62268058  0.25972691    -0.40000
O1844       O  0.78209061  0.62390340  0.29410881    -0.39100
O1845       O  0.68014762  0.64386571  0.38189049    -0.39100
O1846       O  0.65078618  0.64640847  0.34978291    -0.36900
O1847       O  0.71087325  0.50422603  0.34149832    -0.37800
O1848       O  0.68708520  0.51157878  0.37750251    -0.33900
O1849       O  0.66258001  0.60791704  0.27313084    -0.35300
O1850       O  0.63284722  0.61954596  0.30294050    -0.39600
C1851       C  0.80560232  0.62974976  0.19279320    -0.13300
C1852       C  0.79327306  0.62345422  0.16825230     0.17100
C1853       C  0.77113028  0.63930210  0.16017154     0.03400
C1854       C  0.76113948  0.65963021  0.17731504    -0.11800
C1855       C  0.77297409  0.66494598  0.20238585    -0.02900
C1856       C  0.79635771  0.65046070  0.20936203     0.02600
C1857       C  0.80001524  0.59666643  0.15602067     0.09500
N1858       N  0.75820497  0.63502277  0.13487264     0.65800
H1859       H  0.74362807  0.67069963  0.17124781     0.18700
N1860       N  0.81133649  0.65620166  0.23323266     0.67300
H1861       H  0.82174016  0.61759168  0.20016968     0.10200
C1862       C  0.82678256  0.58686806  0.15569787     0.03900
C1863       C  0.83147232  0.55912128  0.15883810    -0.04800
C1864       C  0.80986164  0.54085430  0.16043376    -0.23200
C1865       C  0.78370925  0.55017703  0.15510417     0.13200
C1866       C  0.77893240  0.57783540  0.15349778    -0.12300
N1867       N  0.84936369  0.60486206  0.15368783     0.64900
H1868       H  0.85174229  0.55222153  0.16187783     0.12700
N1869       N  0.76131406  0.53192187  0.15333971     0.61500
H1870       H  0.75840585  0.58430649  0.15347384     0.08900
O1871       O  0.83014169  0.67338349  0.23205714    -0.40000
O1872       O  0.81201884  0.63868584  0.25141184    -0.39100
O1873       O  0.73490669  0.62468644  0.13445787    -0.39100
O1874       O  0.76573098  0.64914458  0.11523699    -0.36900
O1875       O  0.74490728  0.53055421  0.17264155    -0.37800
O1876       O  0.75407493  0.52342804  0.13048226    -0.33900
O1877       O  0.86386297  0.60920667  0.17406479    -0.35300
O1878       O  0.85909863  0.60942206  0.13074323    -0.39600
C1879       C  0.59948232  0.83580922  0.16831637    -0.13300
C1880       C  0.59312202  0.80811807  0.16957931     0.17100
C1881       C  0.56601174  0.80010081  0.16662482     0.03400
C1882       C  0.54561277  0.81960752  0.16689645    -0.11800
C1883       C  0.55192203  0.84709572  0.17086655    -0.02900
C1884       C  0.57911088  0.85526750  0.16984801     0.02600
C1885       C  0.61329423  0.79019617  0.18252857     0.09500
N1886       N  0.55866218  0.77218468  0.16535243     0.65800
H1887       H  0.52493418  0.81299327  0.16714272     0.18700
N1888       N  0.58675420  0.88300204  0.17323231     0.76300
H1889       H  0.61937251  0.84211023  0.16909998     0.10200
C1890       C  0.63542934  0.77897825  0.16889906     0.03900
C1891       C  0.65649162  0.76673167  0.18355473    -0.04800
C1892       C  0.65577253  0.76540561  0.21195680    -0.23200
C1893       C  0.63233113  0.77527114  0.22503073     0.13200
C1894       C  0.61183691  0.78753119  0.21038563    -0.12300
N1895       N  0.63636597  0.77954788  0.14023918     0.64900
H1896       H  0.67370247  0.75889926  0.17276237     0.12700
N1897       N  0.62857002  0.77291637  0.25336223     0.61500
H1898       H  0.59483620  0.79586310  0.22111807     0.08900
O1899       O  0.59549179  0.89592861  0.15326820    -0.40000
O1900       O  0.59137713  0.89203841  0.19656091    -0.39100
O1901       O  0.55036911  0.76057367  0.18627282    -0.39100
O1902       O  0.55434421  0.76130478  0.14273119    -0.36900
O1903       O  0.63368046  0.79308308  0.26824367    -0.37800
O1904       O  0.61316019  0.75455119  0.26202828    -0.33900
O1905       O  0.64499724  0.80046400  0.12865016    -0.35300
O1906       O  0.62262392  0.76248603  0.12702607    -0.39600
C1907       C  0.57873897  0.71387465  0.36870945    -0.13300
C1908       C  0.59114200  0.69217823  0.35551564     0.17100
C1909       C  0.57684823  0.66741687  0.35312254     0.03400
C1910       C  0.54945265  0.66638112  0.35928573    -0.11800
C1911       C  0.53618529  0.68921846  0.36916136    -0.02900
C1912       C  0.55162851  0.71235457  0.37612126     0.02600
C1913       C  0.61670747  0.69770635  0.34090189     0.09500
N1914       N  0.58953735  0.64301115  0.34473047     0.65800
H1915       H  0.53843665  0.64824350  0.35429793     0.18700
N1916       N  0.53984974  0.73495793  0.38959705     0.76300
H1917       H  0.58958393  0.73266205  0.37176161     0.10200
C1918       C  0.61793275  0.69505945  0.31272988     0.03900
C1919       C  0.64093325  0.70332183  0.29896407    -0.04800
C1920       C  0.66293960  0.71571473  0.31209783    -0.23200
C1921       C  0.66147377  0.71918740  0.34033117     0.13200
C1922       C  0.63864777  0.70980297  0.35442124    -0.12300
N1923       N  0.59505810  0.68679039  0.29721462     0.64900
H1924       H  0.64072308  0.70115336  0.27736256     0.12700
N1925       N  0.68244701  0.73247390  0.35509421     0.61500
H1926       H  0.63768042  0.71275264  0.37592489     0.08900
O1927       O  0.53679728  0.75673631  0.37705699    -0.40000
O1928       O  0.53984379  0.73555012  0.41492958    -0.39100
O1929       O  0.60050158  0.62890227  0.36252393    -0.39100
O1930       O  0.58125204  0.63130936  0.32366010    -0.36900
O1931       O  0.68031396  0.75734946  0.36028240    -0.37800
O1932       O  0.69795074  0.71851726  0.36925588    -0.33900
O1933       O  0.57780700  0.70425884  0.29130750    -0.35300
O1934       O  0.59660068  0.66573340  0.28285665    -0.39600
C1935       C  0.87339414  0.32130176  0.73082468    -0.13300
C1936       C  0.87031657  0.33880634  0.75291593     0.17100
C1937       C  0.84442188  0.34279111  0.76345803     0.03400
C1938       C  0.82329810  0.32563969  0.75537185    -0.11800
C1939       C  0.82728530  0.30517067  0.73596093    -0.02900
C1940       C  0.85185926  0.30514365  0.72166339     0.02600
C1941       C  0.89488172  0.34852820  0.76704363     0.09500
N1942       N  0.83923854  0.36381114  0.78252967     0.65800
H1943       H  0.80409426  0.32749526  0.76531579     0.18700
N1944       N  0.85571016  0.28851565  0.69842897     0.76300
H1945       H  0.89291564  0.31916337  0.72156181     0.10200
C1946       C  0.90892556  0.33070322  0.78375512     0.03900
C1947       C  0.93500487  0.33712832  0.79225937    -0.04800
C1948       C  0.94760918  0.36135698  0.78477573    -0.23200
C1949       C  0.93302295  0.37990558  0.76921780     0.13200
C1950       C  0.90672656  0.37347879  0.76063482    -0.12300
N1951       N  0.89803414  0.30470305  0.79005364     0.64900
H1952       H  0.94628728  0.32209669  0.80292568     0.12700
N1953       N  0.94542504  0.40427977  0.76004553     0.61500
H1954       H  0.89633548  0.38711542  0.74751944     0.08900
O1955       O  0.86995439  0.26771161  0.70020625    -0.40000
O1956       O  0.85190345  0.29862166  0.67559308    -0.39100
O1957       O  0.83050316  0.38603515  0.77416088    -0.39100
O1958       O  0.83597302  0.35789894  0.80689281    -0.36900
O1959       O  0.95509718  0.40509330  0.73662385    -0.37800
O1960       O  0.94090729  0.42609529  0.77245114    -0.33900
O1961       O  0.90431316  0.28461567  0.77567445    -0.35300
O1962       O  0.88806985  0.30083346  0.81302046    -0.39600
C1963       C  0.86352444  0.18195919  0.68768983    -0.13300
C1964       C  0.88827567  0.19319716  0.69539596     0.17100
C1965       C  0.88950822  0.20878789  0.71935995     0.03400
C1966       C  0.86584875  0.21416049  0.73400168    -0.11800
C1967       C  0.84074440  0.20410617  0.72537492    -0.02900
C1968       C  0.84006676  0.18696510  0.70239845     0.02600
C1969       C  0.91104094  0.19167476  0.67588000     0.09500
N1970       N  0.91421915  0.22061641  0.72845396     0.65800
H1971       H  0.86702204  0.22725551  0.75144064     0.18700
N1972       N  0.81551361  0.17539130  0.69270957     0.76300
H1973       H  0.86219659  0.16998091  0.66947209     0.10200
C1974       C  0.93526512  0.17820705  0.68123617     0.03900
C1975       C  0.95687053  0.18018832  0.66308725    -0.04800
C1976       C  0.95430940  0.19388944  0.63860364    -0.23200
C1977       C  0.92915570  0.20508398  0.63223284     0.13200
C1978       C  0.90799478  0.20411778  0.65085118    -0.12300
N1979       N  0.93803393  0.16176200  0.70444937     0.64900
H1980       H  0.97609694  0.17181343  0.66859151     0.12700
N1981       N  0.92531433  0.21916767  0.60764503     0.61500
H1982       H  0.88930447  0.21389918  0.64605623     0.08900
O1983       O  0.80929288  0.15157030  0.69922444    -0.40000
O1984       O  0.80395765  0.18606037  0.67300013    -0.39100
O1985       O  0.92020040  0.24436966  0.72149943    -0.39100
O1986       O  0.92540193  0.21093803  0.74889019    -0.36900
O1987       O  0.91597872  0.20649657  0.58757828    -0.37800
O1988       O  0.92480493  0.24463843  0.60794797    -0.33900
O1989       O  0.95359593  0.16941461  0.72304951    -0.35300
O1990       O  0.93148293  0.13711251  0.70277856    -0.39600
C1991       C  0.73799175  0.16361602  0.85134626    -0.13300
C1992       C  0.74641379  0.17495185  0.87579752     0.17100
C1993       C  0.76604723  0.19584507  0.87546205     0.03400
C1994       C  0.77541275  0.20620495  0.85096745    -0.11800
C1995       C  0.76585495  0.19595174  0.82638235    -0.02900
C1996       C  0.74773490  0.17355945  0.82682263     0.02600
C1997       C  0.73559195  0.16403416  0.90152073     0.09500
N1998       N  0.77578350  0.20778633  0.89983662     0.65800
H1999       H  0.78915726  0.22324288  0.85130679     0.18700
N2000       N  0.73898645  0.16044030  0.80263681     0.76300
H2001       H  0.72386624  0.14689908  0.85127597     0.10200
C2002       C  0.70826577  0.16627741  0.90908303     0.03900
C2003       C  0.70009415  0.15982210  0.93531566    -0.04800
C2004       C  0.71866125  0.15042620  0.95406269    -0.23200
C2005       C  0.74492074  0.14426060  0.94506136     0.13200
C2006       C  0.75326935  0.15156735  0.91922732    -0.12300
N2007       N  0.68869532  0.17632610  0.89099200     0.64900
H2008       H  0.67987800  0.16451587  0.94159802     0.12700
N2009       N  0.76385933  0.13177492  0.96241661     0.61500
H2010       H  0.77384969  0.14819431  0.91326054     0.08900
O2011       O  0.71549052  0.16450016  0.79420971    -0.40000
O2012       O  0.75141406  0.13988209  0.79438605    -0.39100
O2013       O  0.79885016  0.20163482  0.90814194    -0.39100
O2014       O  0.76491785  0.22899944  0.90866469    -0.36900
O2015       O  0.76552113  0.10636825  0.96210540    -0.37800
O2016       O  0.78325400  0.14559778  0.97164051    -0.33900
O2017       O  0.67176007  0.15989535  0.88112085    -0.35300
O2018       O  0.68331209  0.20116883  0.89162208    -0.39600
C2019       C  0.75949777  0.31931493  0.86487975    -0.13300
C2020       C  0.78689563  0.31943912  0.87184263     0.17100
C2021       C  0.80568020  0.31009372  0.85286424     0.03400
C2022       C  0.79696773  0.30028511  0.82783521    -0.11800
C2023       C  0.76944488  0.29814389  0.82143914    -0.02900
C2024       C  0.75060942  0.30847902  0.84008224     0.02600
C2025       C  0.79497826  0.32569535  0.90007080     0.09500
N2026       N  0.83353760  0.30833819  0.85944991     0.65800
H2027       H  0.81188468  0.29233514  0.81419010     0.18700
N2028       N  0.72247071  0.30797939  0.83443180     0.76300
H2029       H  0.74484295  0.32632921  0.87929724     0.10200
C2030       C  0.79534471  0.35230251  0.91056757     0.03900
C2031       C  0.79992657  0.35686995  0.93806006    -0.04800
C2032       C  0.80421370  0.33531240  0.95542577    -0.23200
C2033       C  0.80464363  0.30875523  0.94493322     0.13200
C2034       C  0.80025865  0.30416980  0.91742540    -0.12300
N2035       N  0.79012886  0.37488616  0.89385798     0.64900
H2036       H  0.79873196  0.37720648  0.94610755     0.12700
N2037       N  0.80737254  0.28619812  0.96244369     0.61500
H2038       H  0.79970946  0.28358736  0.90977579     0.08900
O2039       O  0.71151184  0.32920168  0.82615395    -0.40000
O2040       O  0.70795041  0.28955887  0.84436818    -0.39100
O2041       O  0.84324470  0.28560579  0.86491353    -0.39100
O2042       O  0.84920056  0.32761507  0.85364309    -0.36900
O2043       O  0.83027866  0.27997782  0.97108649    -0.37800
O2044       O  0.78670612  0.27555043  0.97278433    -0.33900
O2045       O  0.76731090  0.38572312  0.89493888    -0.35300
O2046       O  0.80975463  0.38822556  0.88462318    -0.39600
C2047       C  0.62256638  0.18844798  0.75726516    -0.13300
C2048       C  0.62354003  0.19347060  0.78526914     0.17100
C2049       C  0.64849423  0.20211838  0.79629318     0.03400
C2050       C  0.67050401  0.20692464  0.77959710    -0.11800
C2051       C  0.66856342  0.20480776  0.75160313    -0.02900
C2052       C  0.64445658  0.19488475  0.74036194     0.02600
C2053       C  0.59837169  0.19133758  0.80213921     0.09500
N2054       N  0.65226007  0.20691601  0.82433363     0.65800
H2055       H  0.68893309  0.21414686  0.78874284     0.18700
N2056       N  0.64170241  0.19116971  0.71205639     0.76300
H2057       H  0.60465729  0.18006789  0.74827556     0.10200
C2058       C  0.57333446  0.20117072  0.79302708     0.03900
C2059       C  0.55118846  0.20200185  0.81038689    -0.04800
C2060       C  0.55350528  0.19519048  0.83753504    -0.23200
C2061       C  0.57793320  0.18449355  0.84660995     0.13200
C2062       C  0.59952388  0.18129686  0.82858318    -0.12300
N2063       N  0.57037654  0.21312834  0.76719495     0.64900
H2064       H  0.53288581  0.21071517  0.80331729     0.12700
N2065       N  0.58208365  0.17891270  0.87437393     0.61500
H2066       H  0.61758110  0.17222272  0.83587020     0.08900
O2067       O  0.62853708  0.20815808  0.69886379    -0.40000
O2068       O  0.64562754  0.16805471  0.70202040    -0.39100
O2069       O  0.66695049  0.19087159  0.83699509    -0.39100
O2070       O  0.64896888  0.23039060  0.83371978    -0.36900
O2071       O  0.58158061  0.15473626  0.88211382    -0.37800
O2072       O  0.59347087  0.19660228  0.88892621    -0.33900
O2073       O  0.55725425  0.20051331  0.74930683    -0.35300
O2074       O  0.57381379  0.23829002  0.76495408    -0.39600
C2075       C  0.62596215  0.30993292  0.75125464    -0.13300
C2076       C  0.63002221  0.33325013  0.73604876     0.17100
C2077       C  0.65600854  0.34457854  0.73460230     0.03400
C2078       C  0.67786626  0.33015345  0.74467158    -0.11800
C2079       C  0.67421094  0.30434589  0.75599610    -0.02900
C2080       C  0.64769472  0.29562235  0.76150369     0.02600
C2081       C  0.60757084  0.34160616  0.71854993     0.09500
N2082       N  0.66061629  0.37041089  0.72283063     0.65800
H2083       H  0.69790465  0.33813264  0.74148970     0.18700
N2084       N  0.64211811  0.27100084  0.77497616     0.76300
H2085       H  0.60593044  0.30151263  0.75330937     0.10200
C2086       C  0.60699166  0.33286752  0.69152833     0.03900
C2087       C  0.58243184  0.33004392  0.67804243    -0.04800
C2088       C  0.55818763  0.33589992  0.69106432    -0.23200
C2089       C  0.55906584  0.34773318  0.71695116     0.13200
C2090       C  0.58368274  0.35039151  0.73051127    -0.12300
N2091       N  0.63074347  0.32343592  0.67863511     0.64900
H2092       H  0.58210915  0.32053487  0.65841922     0.12700
N2093       N  0.53496095  0.35357337  0.73129111     0.61500
H2094       H  0.58375265  0.35671579  0.75133837     0.08900
O2095       O  0.63209521  0.25175052  0.76149720    -0.40000
O2096       O  0.63770056  0.27203695  0.79990007    -0.39100
O2097       O  0.66293835  0.39079986  0.73806060    -0.39100
O2098       O  0.66941755  0.37179137  0.69912507    -0.36900
O2099       O  0.52708173  0.33747770  0.74922464    -0.37800
O2100       O  0.52654679  0.37751209  0.73162862    -0.33900
O2101       O  0.63571405  0.29849143  0.67833646    -0.35300
O2102       O  0.64311180  0.33893302  0.66279309    -0.39600
C2103       C  0.70841218  0.31531092  0.55384073    -0.13300
C2104       C  0.70172346  0.30632781  0.57962610     0.17100
C2105       C  0.67532679  0.29616357  0.58418219     0.03400
C2106       C  0.65717087  0.29346112  0.56298942    -0.11800
C2107       C  0.66425939  0.30117152  0.53713252    -0.02900
C2108       C  0.68987232  0.31296250  0.53264998     0.02600
C2109       C  0.72190708  0.30766529  0.60172085     0.09500
N2110       N  0.66634029  0.28804541  0.61010885     0.65800
H2111       H  0.63777529  0.28415449  0.56658800     0.18700
N2112       N  0.69801126  0.32136520  0.50651057     0.76300
H2113       H  0.72809324  0.32383073  0.55004158     0.10200
C2114       C  0.74670006  0.29384798  0.60077253     0.03900
C2115       C  0.76015459  0.28807860  0.62485139    -0.04800
C2116       C  0.74977121  0.29682340  0.64966245    -0.23200
C2117       C  0.72836483  0.31554152  0.64949674     0.13200
C2118       C  0.71461152  0.32050574  0.62568284    -0.12300
N2119       N  0.75751726  0.28378129  0.57608856     0.64900
H2120       H  0.77733553  0.27493257  0.62423998     0.12700
N2121       N  0.71843550  0.32779751  0.67355523     0.61500
H2122       H  0.69696822  0.33300367  0.62632648     0.08900
O2123       O  0.71169542  0.30549142  0.49216288    -0.40000
O2124       O  0.69858609  0.34627385  0.50140519    -0.39100
O2125       O  0.65139389  0.30395700  0.62292876    -0.39100
O2126       O  0.66429003  0.26319833  0.61491129    -0.36900
O2127       O  0.72535382  0.35179915  0.67906822    -0.37800
O2128       O  0.69773940  0.31792724  0.68455482    -0.33900
O2129       O  0.77617362  0.29699418  0.56488799    -0.35300
O2130       O  0.75422805  0.25918064  0.56999684    -0.39600
C2131       C  0.74104123  0.18910248  0.60549848    -0.13300
C2132       C  0.75722607  0.16632727  0.60897320     0.17100
C2133       C  0.75696537  0.15394849  0.63441236     0.03400
C2134       C  0.74613459  0.16765611  0.65668332    -0.11800
C2135       C  0.73438431  0.19323819  0.65394268    -0.02900
C2136       C  0.72877874  0.20181356  0.62770204     0.02600
C2137       C  0.77965668  0.16141018  0.58948548     0.09500
N2138       N  0.76867361  0.12805720  0.63822581     0.65800
H2139       H  0.74901587  0.15929179  0.67641721     0.18700
N2140       N  0.70961893  0.22224947  0.62309943     0.76300
H2141       H  0.73939469  0.19820999  0.58599304     0.10200
C2142       C  0.77593840  0.15688615  0.56164189     0.03900
C2143       C  0.79803424  0.15889512  0.54388535    -0.04800
C2144       C  0.82376972  0.16667510  0.55312014    -0.23200
C2145       C  0.82743676  0.17029858  0.58107966     0.13200
C2146       C  0.80576701  0.16690500  0.59877696    -0.12300
N2147       N  0.74980378  0.15162947  0.55079912     0.64900
H2148       H  0.79454288  0.15669896  0.52257989     0.12700
N2149       N  0.85233527  0.17981660  0.59202581     0.61500
H2150       H  0.80899402  0.17127446  0.61976681     0.08900
O2151       O  0.68594655  0.21498710  0.61728229    -0.40000
O2152       O  0.71761161  0.24560517  0.61705666    -0.39100
O2153       O  0.79222617  0.12653751  0.64737182    -0.39100
O2154       O  0.75339763  0.10758578  0.63933033    -0.36900
O2155       O  0.86551278  0.16412671  0.60672107    -0.37800
O2156       O  0.85572245  0.20494601  0.59507641    -0.33900
O2157       O  0.73743283  0.17049503  0.53947619    -0.35300
O2158       O  0.74270755  0.12752120  0.54604503    -0.39600
C2159       C  0.34571978  0.77370236  0.85323058    -0.13300
C2160       C  0.33683259  0.79655313  0.86739011     0.17100
C2161       C  0.31766807  0.81334205  0.85549559     0.03400
C2162       C  0.30579321  0.80557670  0.83123482    -0.11800
C2163       C  0.31213513  0.78092575  0.81859179    -0.02900
C2164       C  0.33367038  0.76579684  0.82889760     0.02600
C2165       C  0.34597291  0.80070302  0.89539670     0.09500
N2166       N  0.30947652  0.83803903  0.86793339     0.65800
H2167       H  0.29039397  0.81831634  0.82303792     0.18700
N2168       N  0.34287834  0.74181806  0.81590396     0.76300
H2169       H  0.36098780  0.76107759  0.86184718     0.10200
C2170       C  0.32795604  0.79734880  0.91708425     0.03900
C2171       C  0.33758385  0.79832910  0.94332406    -0.04800
C2172       C  0.36505175  0.80141450  0.94855641    -0.23200
C2173       C  0.38318465  0.80483695  0.92715306     0.13200
C2174       C  0.37349451  0.80474760  0.90068365    -0.12300
N2175       N  0.30043126  0.78982621  0.91298846     0.64900
H2176       H  0.32369732  0.79506204  0.95973218     0.12700
N2177       N  0.41142049  0.80721045  0.93185179     0.61500
H2178       H  0.38751738  0.80677698  0.88422182     0.08900
O2179       O  0.33492975  0.71921089  0.82450930    -0.40000
O2180       O  0.36439580  0.74304516  0.80250606    -0.39100
O2181       O  0.32113379  0.85963974  0.86116590    -0.39100
O2182       O  0.28627509  0.83939058  0.87805357    -0.36900
O2183       O  0.42257642  0.83019102  0.93107872    -0.37800
O2184       O  0.42573251  0.78634934  0.93067404    -0.33900
O2185       O  0.29466248  0.76513686  0.90971635    -0.35300
O2186       O  0.28232422  0.80556296  0.92115139    -0.39600
C2187       C  0.16423340  0.72630334  0.84915806    -0.13300
C2188       C  0.17740705  0.71427192  0.87076277     0.17100
C2189       C  0.20554315  0.71187534  0.87006309     0.03400
C2190       C  0.21996278  0.72099038  0.84776598    -0.11800
C2191       C  0.20704837  0.73318477  0.82583927    -0.02900
C2192       C  0.17872939  0.73574344  0.82677988     0.02600
C2193       C  0.16217310  0.70482984  0.89455902     0.09500
N2194       N  0.21980743  0.70091676  0.89233660     0.65800
H2195       H  0.24163756  0.71894279  0.84800587     0.18700
N2196       N  0.16418025  0.74742743  0.80521242     0.76300
H2197       H  0.14259632  0.72823564  0.84960503     0.10200
C2198       C  0.15013063  0.72346232  0.91214522     0.03900
C2199       C  0.14280288  0.71536486  0.93792528    -0.04800
C2200       C  0.15001703  0.68981396  0.94756888    -0.23200
C2201       C  0.15837235  0.67003306  0.92881232     0.13200
C2202       C  0.16395188  0.67766769  0.90228644    -0.12300
N2203       N  0.14980774  0.75161120  0.90612128     0.64900
H2204       H  0.13557619  0.73058081  0.95177717     0.12700
N2205       N  0.16414931  0.64305372  0.93663073     0.61500
H2206       H  0.17246225  0.66300460  0.88866703     0.08900
O2207       O  0.15598154  0.77133914  0.80773909    -0.40000
O2208       O  0.15319871  0.73203961  0.78802765    -0.39100
O2209       O  0.22783667  0.67684203  0.89131432    -0.39100
O2210       O  0.22115836  0.71393942  0.91421310    -0.36900
O2211       O  0.14746746  0.62453411  0.93081555    -0.37800
O2212       O  0.18818353  0.63684012  0.94139099    -0.33900
O2213       O  0.12790634  0.76250055  0.89990928    -0.35300
O2214       O  0.16943160  0.76634339  0.91328191    -0.39600
C2215       C  0.16696124  0.85811215  0.70367753    -0.13300
C2216       C  0.17931504  0.87374253  0.68354319     0.17100
C2217       C  0.20526697  0.86640280  0.67471280     0.03400
C2218       C  0.21813778  0.84438804  0.68623160    -0.11800
C2219       C  0.20694927  0.83032645  0.70807836    -0.02900
C2220       C  0.18067597  0.83715027  0.71646957     0.02600
C2221       C  0.16783070  0.90067289  0.67711647     0.09500
N2222       N  0.22072534  0.88316086  0.65710956     0.65800
H2223       H  0.23816389  0.83982025  0.67926769     0.18700
N2224       N  0.16830548  0.82478812  0.73922114     0.76300
H2225       H  0.14728532  0.86359385  0.71101526     0.10200
C2226       C  0.16607353  0.91111188  0.65077837     0.03900
C2227       C  0.16370872  0.93907716  0.64712070    -0.04800
C2228       C  0.16150904  0.95648670  0.66930950    -0.23200
C2229       C  0.15795016  0.94538413  0.69504325     0.13200
C2230       C  0.16188786  0.91786692  0.69884589    -0.12300
N2231       N  0.16574078  0.89381718  0.62766363     0.64900
H2232       H  0.16546944  0.94721048  0.62714621     0.12700
N2233       N  0.15243210  0.96216726  0.71789315     0.61500
H2234       H  0.16206659  0.91036674  0.71914737     0.08900
O2235       O  0.17032704  0.83629488  0.76186317    -0.40000
O2236       O  0.14975545  0.80759997  0.73548927    -0.39100
O2237       O  0.23365943  0.90288360  0.66707069    -0.39100
O2238       O  0.22835417  0.87352837  0.63486402    -0.36900
O2239       O  0.12829367  0.96591358  0.72463109    -0.37800
O2240       O  0.17078665  0.96701190  0.73477804    -0.33900
O2241       O  0.14366984  0.88294446  0.62094417    -0.35300
O2242       O  0.18370354  0.89676437  0.60998902    -0.39600
C2243       C  0.31546337  0.88581046  0.77555073    -0.13300
C2244       C  0.34173418  0.88115738  0.78428382     0.17100
C2245       C  0.35190175  0.85467123  0.78244706     0.03400
C2246       C  0.33587724  0.83369501  0.77124530    -0.11800
C2247       C  0.30940373  0.83849866  0.76269829    -0.02900
C2248       C  0.29932022  0.86504703  0.76509653     0.02600
C2249       C  0.35601755  0.90473900  0.79676403     0.09500
N2250       N  0.37807038  0.84850775  0.79217389     0.65800
H2251       H  0.34375386  0.81347626  0.77021134     0.18700
N2252       N  0.27268351  0.87160691  0.75684454     0.76300
H2253       H  0.30712684  0.90582167  0.77736127     0.10200
C2254       C  0.36073849  0.92789146  0.78107044     0.03900
C2255       C  0.35690156  0.95361287  0.79227874    -0.04800
C2256       C  0.34900594  0.95667881  0.81915990    -0.23200
C2257       C  0.34992623  0.93403899  0.83602553     0.13200
C2258       C  0.35373594  0.90815260  0.82473580    -0.12300
N2259       N  0.36515288  0.92557696  0.75280592     0.64900
H2260       H  0.35666113  0.97082786  0.77915033     0.12700
N2261       N  0.34317287  0.93639382  0.86383672     0.61500
H2262       H  0.35127745  0.89088182  0.83709722     0.08900
O2263       O  0.25440970  0.87319507  0.77437755    -0.40000
O2264       O  0.26944801  0.88318975  0.73463822    -0.39100
O2265       O  0.38024246  0.83693866  0.81452733    -0.39100
O2266       O  0.39738805  0.84751863  0.77576557    -0.36900
O2267       O  0.31931575  0.93191842  0.87133524    -0.37800
O2268       O  0.36173610  0.93723873  0.88106640    -0.33900
O2269       O  0.34566477  0.92852875  0.73695545    -0.35300
O2270       O  0.38882119  0.92773846  0.74389378    -0.39600
C2271       C  0.31150343  0.67413965  0.63943543    -0.13300
C2272       C  0.33143870  0.68750345  0.62453707     0.17100
C2273       C  0.34109271  0.71282609  0.63446602     0.03400
C2274       C  0.32927075  0.72493661  0.65728523    -0.11800
C2275       C  0.30788119  0.71235890  0.67076435    -0.02900
C2276       C  0.29998944  0.68598037  0.66228453     0.02600
C2277       C  0.33684889  0.67743105  0.59643673     0.09500
N2278       N  0.36249909  0.72699137  0.62140690     0.65800
H2279       H  0.33596336  0.74481610  0.66356569     0.18700
N2280       N  0.27968006  0.67091445  0.67612460     0.76300
H2281       H  0.30323704  0.65520150  0.63235127     0.10200
C2282       C  0.33978958  0.64957013  0.58981721     0.03900
C2283       C  0.33590675  0.64040044  0.56323983    -0.04800
C2284       C  0.32964395  0.65842882  0.54280673    -0.23200
C2285       C  0.32925088  0.68627994  0.54881451     0.13200
C2286       C  0.33261770  0.69545700  0.57528399    -0.12300
N2287       N  0.34520926  0.62991738  0.60983548     0.64900
H2288       H  0.33614580  0.61898896  0.55890302     0.12700
N2289       N  0.32293559  0.70547248  0.52861266     0.61500
H2290       H  0.32923238  0.71650336  0.57943534     0.08900
O2291       O  0.28683290  0.65336402  0.69277246    -0.40000
O2292       O  0.25629826  0.66950180  0.66638127    -0.39100
O2293       O  0.35724192  0.74814169  0.60856890    -0.39100
O2294       O  0.38617252  0.72361456  0.62966474    -0.36900
O2295       O  0.29909099  0.71361445  0.52651302    -0.37800
O2296       O  0.34174928  0.71904360  0.51814309    -0.33900
O2297       O  0.32743742  0.61226990  0.61481309    -0.35300
O2298       O  0.36939075  0.62485377  0.61526289    -0.39600
C2299       C  0.19885360  0.76022958  0.61757758    -0.13300
C2300       C  0.17565311  0.77551466  0.62141701     0.17100
C2301       C  0.16685035  0.78155186  0.64763186     0.03400
C2302       C  0.18207136  0.77325984  0.66969933    -0.11800
C2303       C  0.20613590  0.75931240  0.66572142    -0.02900
C2304       C  0.21423197  0.75226162  0.63941950     0.02600
C2305       C  0.16190170  0.78539697  0.59730059     0.09500
N2306       N  0.14326853  0.79710279  0.65209763     0.65800
H2307       H  0.17592688  0.77899548  0.68972929     0.18700
N2308       N  0.23818606  0.73725520  0.63449352     0.76300
H2309       H  0.20544308  0.75515530  0.59748155     0.10200
C2310       C  0.17379627  0.80597383  0.58188728     0.03900
C2311       C  0.16512600  0.81028750  0.55554661    -0.04800
C2312       C  0.14467679  0.79408527  0.54422991    -0.23200
C2313       C  0.13155126  0.77464782  0.56056047     0.13200
C2314       C  0.14023560  0.77058483  0.58691004    -0.12300
N2315       N  0.19570839  0.82153474  0.59251086     0.64900
H2316       H  0.17570717  0.82498956  0.54332321     0.12700
N2317       N  0.11001295  0.75813176  0.55049975     0.61500
H2318       H  0.13119085  0.75459479  0.59865727     0.08900
O2319       O  0.25934602  0.74962206  0.62752909    -0.40000
O2320       O  0.23631886  0.71215395  0.63021507    -0.39100
O2321       O  0.12171643  0.78531887  0.65880189    -0.39100
O2322       O  0.14535380  0.82237691  0.65492792    -0.36900
O2323       O  0.11483680  0.73414139  0.54339414    -0.37800
O2324       O  0.08625979  0.76418803  0.55685040    -0.33900
O2325       O  0.21951401  0.81481175  0.58707815    -0.35300
O2326       O  0.19143731  0.83745699  0.61190719    -0.39600
C2327       C  0.34421292  0.64246248  0.73538064    -0.13300
C2328       C  0.33186848  0.61717170  0.73965506     0.17100
C2329       C  0.30744127  0.61604836  0.75414460     0.03400
C2330       C  0.29481483  0.63985833  0.76225862    -0.11800
C2331       C  0.30653865  0.66498578  0.75701956    -0.02900
C2332       C  0.33180869  0.66632487  0.74436994     0.02600
C2333       C  0.34492002  0.59180349  0.73044974     0.09500
N2334       N  0.29520378  0.59082492  0.76097947     0.65800
H2335       H  0.27535267  0.63871216  0.77199311     0.18700
N2336       N  0.34558115  0.69166084  0.74210887     0.76300
H2337       H  0.36358106  0.64360507  0.72542356     0.10200
C2338       C  0.34063854  0.58101639  0.70448987     0.03900
C2339       C  0.34790699  0.55423602  0.69843510    -0.04800
C2340       C  0.35971129  0.53792483  0.71798393    -0.23200
C2341       C  0.36659790  0.54993224  0.74308918     0.13200
C2342       C  0.35896866  0.57650066  0.74910823    -0.12300
N2343       N  0.32782736  0.59662205  0.68440161     0.64900
H2344       H  0.34227062  0.54565512  0.67925894     0.12700
N2345       N  0.38017405  0.53504839  0.76335463     0.61500
H2346       H  0.36283268  0.58471556  0.76892045     0.08900
O2347       O  0.34265709  0.70569857  0.72135829    -0.40000
O2348       O  0.35600346  0.70229026  0.76277325    -0.39100
O2349       O  0.29676313  0.58276586  0.78488491    -0.39100
O2350       O  0.27738018  0.58082562  0.74576837    -0.36900
O2351       O  0.40533340  0.53770745  0.76543935    -0.37800
O2352       O  0.36698399  0.52663722  0.78331934    -0.33900
O2353       O  0.34216550  0.61048596  0.66870626    -0.35300
O2354       O  0.30350194  0.59203000  0.67867649    -0.39600
C2355       C  0.19355153  0.60366442  0.82714172    -0.13300
C2356       C  0.18034256  0.60024443  0.80243050     0.17100
C2357       C  0.16802013  0.57498495  0.79657913     0.03400
C2358       C  0.16933444  0.55400308  0.81528456    -0.11800
C2359       C  0.18325224  0.55744378  0.83957112    -0.02900
C2360       C  0.19462666  0.58293261  0.84582577     0.02600
C2361       C  0.18305034  0.62254250  0.78267585     0.09500
N2362       N  0.15530537  0.56962528  0.77136533     0.65800
H2363       H  0.16103602  0.53444378  0.80996447     0.18700
N2364       N  0.20773962  0.58821271  0.87089413     0.76300
H2365       H  0.20439302  0.62210573  0.83156042     0.10200
C2366       C  0.17882829  0.64964671  0.79065028     0.03900
C2367       C  0.19072435  0.67064027  0.77622294    -0.04800
C2368       C  0.20600940  0.66544721  0.75315611    -0.23200
C2369       C  0.20664448  0.63883810  0.74276709     0.13200
C2370       C  0.19576321  0.61753661  0.75790509    -0.12300
N2371       N  0.16403439  0.65627779  0.81438821     0.64900
H2372       H  0.18921972  0.69095681  0.78395473     0.12700
N2373       N  0.22002248  0.63267553  0.71811154     0.61500
H2374       H  0.19933869  0.59711884  0.75132076     0.08900
O2375       O  0.23306413  0.58986284  0.87144798    -0.40000
O2376       O  0.19450577  0.59939252  0.88946590    -0.39100
O2377       O  0.16748036  0.55542454  0.75414053    -0.39100
O2378       O  0.13008760  0.57145750  0.76984815    -0.36900
O2379       O  0.20610330  0.62807449  0.69737392    -0.37800
O2380       O  0.24406479  0.62490545  0.71866663    -0.33900
O2381       O  0.17672598  0.66304163  0.83533055    -0.35300
O2382       O  0.13988981  0.66339310  0.81205518    -0.39600
loop_ 
_geom_bond_atom_site_label_1 
_geom_bond_atom_site_label_2 
_geom_bond_distance 
_geom_bond_site_symmetry_2 
_ccdc_geom_bond_type 
O1            C9   1.268       .  A
O1          Co21   1.900       .  S
O2           C10   1.274       .  A
O2          Co22   1.992       .  S
O3           C11   1.267       .  A
O3          Co23   1.989       .  S
O4           C12   1.275       .  A
O4          Co24   2.006       .  S
O5           C11   1.273       .  A
O5          Co22   2.016       .  S
O6           C12   1.274       .  A
O6          Co21   1.980       .  S
O7           C10   1.279       .  A
O7          Co24   2.017       .  S
O8            C9   1.299       .  A
O8          Co23   2.126       .  S
C9         C2368   1.479       .  S
C10        C2219   1.497       .  S
C11        C2191   1.496       .  S
C12        C2303   1.465       .  S
O13          C26   1.262       .  A
O13         Co21   1.975       .  S
O14          C27   1.280       .  A
O14         Co22   2.012       .  S
O15          C28   1.268       .  A
O15         Co23   1.894       .  S
O16          C29   1.279       .  A
O16         Co24   2.006       .  S
O17          C29   1.275       .  A
O17         Co22   2.015       .  S
O18          C28   1.295       .  A
O18         Co21   2.123       .  S
O19          C26   1.282       .  A
O19         Co24   2.028       .  S
O20          C27   1.274       .  A
O20         Co23   1.987       .  S
Co21         O25   1.974       .  S
Co22         O25   2.025       .  S
Co23         O25   1.977       .  S
Co24         O25   2.021       .  S
C26        C2275   1.496       .  S
C27        C2163   1.486       .  S
C28        C2331   1.467       .  S
C29        C2247   1.492       .  S
O30          C38   1.280       .  A
O30         Co50   2.075       .  S
O31          C39   1.276       .  A
O31         Co51   1.953       .  S
O32          C40   1.245       .  A
O32         Co52   1.962       .  S
O33          C41   1.249       .  A
O33         Co53   1.955       .  S
O34          C40   1.250       .  A
O34         Co51   2.024       .  S
O35          C41   1.272       .  A
O35         Co50   2.058       .  S
O36          C39   1.280       .  A
O36         Co53   2.032       .  S
O37          C38   1.254       .  A
O37         Co52   1.952       .  S
C38        C2135   1.502       .  S
C39        C1995   1.493       .  S
C40        C1967   1.497       .  S
C41        C2051   1.483       .  S
O42          C55   1.245       .  A
O42         Co50   1.955       .  S
O43          C56   1.290       .  A
O43         Co51   2.003       .  S
O44          C57   1.265       .  A
O44         Co52   2.036       .  S
O45          C58   1.278       .  A
O45         Co53   2.075       .  S
O46          C58   1.268       .  A
O46         Co51   1.958       .  S
O47          C57   1.242       .  A
O47         Co50   1.953       .  S
O48          C55   1.267       .  A
O48         Co53   2.055       .  S
O49          C56   1.288       .  A
O49         Co52   2.059       .  S
Co50         O54   2.072       .  S
Co51         O54   1.974       .  S
Co52         O54   2.068       .  S
Co53         O54   2.158       .  S
C55        C2079   1.491       .  S
C56        C1939   1.493       .  S
C57        C2116   1.490       .  S
C58        C2023   1.496       .  S
O59          C67   1.286       .  A
O59         Co79   2.037       .  S
O60          C68   1.252       .  A
O60         Co80   2.019       .  S
O61          C69   1.247       .  A
O61         Co81   1.950       .  S
O62          C70   1.268       .  A
O62         Co82   1.987       .  S
O63          C69   1.260       .  A
O63         Co80   2.025       .  S
O64          C70   1.280       .  A
O64         Co79   2.014       .  S
O65          C68   1.245       .  A
O65         Co82   1.975       .  S
O66          C67   1.278       .  A
O66         Co81   2.019       .  S
C67        C1892   1.518       .  S
C68        C1771   1.496       .  S
C69        C1743   1.497       .  S
C70        C1855   1.490       .  S
O71          C84   1.271       .  A
O71         Co79   2.021       .  S
O72          C85   1.281       .  A
O72         Co80   2.020       .  S
O73          C86   1.267       .  A
O73         Co81   2.001       .  S
O74          C87   1.271       .  A
O74         Co82   1.918       .  S
O75          C87   1.295       .  A
O75         Co80   2.068       .  S
O76          C86   1.271       .  A
O76         Co79   2.002       .  S
O77          C84   1.267       .  A
O77         Co82   1.994       .  S
O78          C85   1.279       .  A
O78         Co81   1.962       .  S
Co79         O83   2.086       .  S
Co80         O83   2.251       .  S
Co81         O83   1.989       .  S
Co82         O83   1.948       .  S
C84        C1827   1.480       .  S
C85        C1715   1.496       .  S
C86        C1920   1.498       .  S
C87        C1799   1.493       .  S
C88        C1659   1.522       .  S
C88          C89   1.438   1_565  A
C88          C93   1.434   1_554  A
C89        C1696   1.520       .  S
C89          C90   1.444   1_554  A
C90        C1612   1.512       .  S
C90          C91   1.436       .  A
C91        C1631   1.518       .  S
C91          C92   1.423       .  A
C92        C1547   1.504       .  S
C92          C93   1.428   1_545  A
C93        C1584   1.502       .  S
N94          C98   1.361   1_565  A
N94          C95   1.369       .  A
N94        C1687   1.462       .  S
C95        C1752   1.489       .  S
C95          C96   1.385       .  A
C96          C97   1.364   1_565  A
C96          H99   1.080       .  S
C97          C98   1.378       .  A
C97         H100   1.083       .  S
C98        C1519   1.475       .  S
N101        C105   1.369       .  A
N101        C102   1.363   1_556  A
N101       C1603   1.449       .  S
C102       C1500   1.480       .  S
C102        C103   1.376       .  A
C103        C104   1.365   1_554  A
C103        H106   1.083       .  S
C104        C105   1.385       .  A
C104        H107   1.081       .  S
C105       C2004   1.488       .  S
N108        C112   1.358   1_545  A
N108        C109   1.364       .  A
N108       C1556   1.441       .  S
C109       C1472   1.484       .  S
C109        C110   1.384       .  A
C110        C111   1.369   1_545  A
C110        H113   1.081       .  S
C111        C112   1.380       .  A
C111        H114   1.083       .  S
C112       C2256   1.481       .  S
N115        C119   1.369       .  A
N115        C116   1.368       .  A
N115       C1640   1.463       .  S
C116       C1435   1.487       .  S
C116        C117   1.377       .  A
C117        C118   1.368       .  A
C117        H120   1.083       .  S
C118        C119   1.384       .  A
C118        H121   1.083       .  S
C119       C2060   1.488       .  S
N122        C126   1.360       .  A
N122        C123   1.366       .  A
N122       C1668   1.441       .  S
C123       C1407   1.503       .  S
C123        C124   1.388       .  A
C124        C125   1.370       .  A
C124        H127   1.083       .  S
C125        C126   1.378       .  A
C125        H128   1.082       .  S
C126       C1883   1.488       .  S
N129        C133   1.356       .  A
N129        C130   1.359   1_556  A
N129       C1575   1.442       .  S
C130       C1379   1.478       .  S
C130        C131   1.380       .  A
C131        C132   1.369   1_554  A
C131        H134   1.083       .  S
C132        C133   1.382       .  A
C132        H135   1.083       .  S
C133       C2172   1.468       .  S
C136       C1323   1.515       .  S
C136        C137   1.433       .  A
C136        C141   1.441   1_556  A
C137       C1351   1.501       .  S
C137        C138   1.427   1_655  A
C138       C1211   1.512       .  S
C138        C139   1.426       .  A
C139       C1239   1.517       .  S
C139        C140   1.434   1_456  A
C140       C1276   1.519       .  S
C140        C141   1.443       .  A
C141       C1295   1.519       .  S
N142        C146   1.365   1_556  A
N142        C143   1.367       .  A
N142       C1248   1.449       .  S
C143       C2200   1.490       .  S
C143        C144   1.386       .  A
C144        C145   1.357   1_556  A
C144        H147   1.083       .  S
C145        C146   1.377       .  A
C145        H148   1.082       .  S
C146       C1183   1.471       .  S
N149        C153   1.363       .  A
N149        C150   1.365       .  A
N149       C1220   1.462       .  S
C150       C2359   1.480       .  S
C150        C151   1.380       .  A
C151        C152   1.361       .  A
C151        H154   1.080       .  S
C152        C153   1.381       .  A
C152        H155   1.083       .  S
C153       C1155   1.469       .  S
N156        C160   1.372       .  A
N156        C157   1.368   1_655  A
N156       C1267   1.464       .  S
C157       C1127   1.486       .  S
C157        C158   1.377       .  A
C158        C159   1.364   1_455  A
C158        H161   1.083       .  S
C159        C160   1.383       .  A
C159        H162   1.081       .  S
C160       C1780   1.493       .  S
N163        C167   1.368       .  A
N163        C164   1.364       .  A
N163       C1304   1.452       .  S
C164       C1099   1.479       .  S
C164        C165   1.381       .  A
C165        C166   1.361       .  A
C165        H168   1.083       .  S
C166        C167   1.381       .  A
C166        H169   1.081       .  S
C167       C1864   1.485       .  S
N170        C174   1.367   1_655  A
N170        C171   1.369       .  A
N170       C1360   1.453       .  S
C171       C1948   1.480       .  S
C171        C172   1.383       .  A
C172        C173   1.365   1_655  A
C172        H175   1.083       .  S
C173        C174   1.378       .  A
C173        H176   1.083       .  S
C174       C1071   1.486       .  S
N177        C181   1.363   1_554  A
N177        C178   1.366       .  A
N177       C1332   1.454       .  S
C178       C1043   1.478       .  S
C178        C179   1.380       .  A
C179        C180   1.364   1_554  A
C179        H182   1.082       .  S
C180        C181   1.380       .  A
C180        H183   1.083       .  S
C181       C2032   1.475       .  S
C184       C1015   1.495       .  S
C184        C185   1.431       .  A
C184        C189   1.432       .  A
C185        C903   1.514       .  S
C185        C186   1.428       .  A
C186        C884   1.504       .  S
C186        C187   1.427       .  A
C187        C931   1.498       .  S
C187        C188   1.422       .  A
C188        C959   1.504       .  S
C188        C189   1.420       .  A
C189        C987   1.505       .  S
N190        C194   1.360       .  A
N190        C191   1.362       .  A
N190       C1024   1.443       .  S
C191       C2088   1.480       .  S
C191        C192   1.379       .  A
C192        C193   1.365       .  A
C192        H195   1.082       .  S
C193        C194   1.381       .  A
C193        H196   1.083       .  S
C194        C847   1.471       .  S
N197        C201   1.372       .  A
N197        C198   1.370       .  A
N197        C875   1.464       .  S
C198        C819   1.487       .  S
C198        C199   1.383       .  A
C199        C200   1.360       .  A
C199        H202   1.083       .  S
C200        C201   1.376       .  A
C200        H203   1.082       .  S
C201       C2284   1.484       .  S
N204        C208   1.365       .  A
N204        C205   1.359       .  A
N204        C968   1.447       .  S
C205       C1836   1.481       .  S
C205        C206   1.380       .  A
C206        C207   1.369       .  A
C206        H209   1.083       .  S
C207        C208   1.382       .  A
C207        H210   1.082       .  S
C208        C800   1.485       .  S
N211        C215   1.364       .  A
N211        C212   1.356       .  A
N211        C940   1.446       .  S
C212        C772   1.475       .  S
C212        C213   1.379       .  A
C213        C214   1.365       .  A
C213        H216   1.083       .  S
C214        C215   1.385       .  A
C214        H217   1.080       .  S
C215       C1911   1.483       .  S
N218        C222   1.369       .  A
N218        C219   1.366       .  A
N218        C912   1.445       .  S
C219        C744   1.490       .  S
C219        C220   1.379       .  A
C220        C221   1.367       .  A
C220        H223   1.083       .  S
C221        C222   1.383       .  A
C221        H224   1.081       .  S
C222       C2340   1.494       .  S
N225        C229   1.351       .  A
N225        C226   1.351       .  A
N225        C996   1.435       .  S
C226       C2107   1.474       .  S
C226        C227   1.378       .  A
C227        C228   1.375       .  A
C227        H230   1.083       .  S
C228        C229   1.386       .  A
C228        H231   1.082       .  S
C229        C716   1.468       .  S
C232        C576   1.501       .  S
C232        C233   1.428   1_655  A
C232        C237   1.425   1_565  A
C233        C539   1.528       .  S
C233        C234   1.436       .  A
C234        C679   1.506       .  S
C234        C235   1.443       .  A
C235        C660   1.509   1_565  S
C235        C236   1.431   1_565  A
C236        C623   1.513   1_455  S
C236        C237   1.433   1_455  A
C237        C595   1.512       .  S
N238        C242   1.372   1_455  A
N238        C239   1.369       .  A
N238        C632   1.465       .  S
C239        C511   1.489       .  S
C239        C240   1.380       .  A
C240        C241   1.364   1_455  A
C240        H243   1.081       .  S
C241        C242   1.381       .  A
C241        H244   1.083       .  S
C242       C1976   1.489       .  S
N245        C249   1.359       .  A
N245        C246   1.361   1_545  A
N245        C651   1.447       .  S
C246       C2228   1.474       .  S
C246        C247   1.383       .  A
C247        C248   1.361   1_565  A
C247        H250   1.081       .  S
C248        C249   1.381       .  A
C248        H251   1.082       .  S
C249        C483   1.474       .  S
N252        C256   1.371       .  A
N252        C253   1.371       .  A
N252        C688   1.472       .  S
C253       C2312   1.485       .  S
C253        C254   1.383       .  A
C254        C255   1.362       .  A
C254        H257   1.082       .  S
C255        C256   1.377       .  A
C255        H258   1.083       .  S
C256        C455   1.486       .  S
N259        C263   1.365       .  A
N259        C260   1.360       .  A
N259        C604   1.445       .  S
C260        C427   1.489       .  S
C260        C261   1.383       .  A
C261        C262   1.375       .  A
C261        H264   1.082       .  S
C262        C263   1.382       .  A
C262        H265   1.082       .  S
C263       C2144   1.497       .  S
N266        C270   1.356       .  A
N266        C267   1.356   1_565  A
N266        C567   1.447       .  S
C267        C399   1.483       .  S
C267        C268   1.383   1_545  A
C268        C269   1.372       .  A
C268        H271   1.082       .  S
C269        C270   1.384       .  A
C269        H272   1.082       .  S
C270       C1724   1.492       .  S
N273        C277   1.363       .  A
N273        C274   1.364   1_455  A
N273        C548   1.439   1_455  S
C274       C1808   1.487       .  S
C274        C275   1.383       .  A
C275        C276   1.368   1_655  A
C275        H278   1.083       .  S
C276        C277   1.379       .  A
C276        H279   1.082       .  S
C277        C371   1.485       .  S
O280        C288   1.270       .  A
O280       Co300   1.989       .  S
O281        C289   1.263       .  A
O281       Co301   1.970       .  S
O282        C290   1.269       .  A
O282       Co302   2.019       .  S
O283        C291   1.265       .  A
O283       Co303   2.002       .  S
O284        C290   1.272       .  A
O284       Co301   1.994       .  S
O285        C291   1.272       .  A
O285       Co300   1.996       .  S
O286        C289   1.276       .  A
O286       Co303   2.033       .  S
O287        C288   1.279       .  A
O287       Co302   2.034       .  S
C288        C492   1.501       .  S
C289        C735   1.476       .  S
C290        C520   1.494       .  S
C291        C856   1.489       .  S
O292        C305   1.272       .  A
O292       Co300   2.022       .  S
O293        C306   1.272       .  A
O293       Co301   1.999       .  S
O294        C307   1.266       .  A
O294       Co302   1.982       .  S
O295        C308   1.266       .  A
O295       Co303   1.970       .  S
O296        C308   1.275       .  A
O296       Co301   2.035       .  S
O297        C307   1.275       .  A
O297       Co300   2.012       .  S
O298        C305   1.274       .  A
O298       Co303   1.990       .  S
O299        C306   1.271       .  A
O299       Co302   2.006       .  S
Co300       O304   2.106       .  S
Co301       O304   2.095       .  S
Co302       O304   2.105       .  S
Co303       O304   2.099       .  S
C305       C1444   1.492       .  S
C306       C1080   1.492       .  S
C307       C1463   1.484       .  S
C308       C1164   1.484       .  S
O309        C317   1.259       .  A
O309       Co329   2.007       .  S
O310        C318   1.276       .  A
O310       Co330   1.988       .  S
O311        C319   1.243       .  A
O311       Co331   2.014       .  S
O312        C320   1.282       .  A
O312       Co332   2.001       .  S
O313        C319   1.235       .  A
O313       Co330   1.966       .  S
O314        C320   1.279       .  A
O314       Co329   2.006       .  S
O315        C318   1.276       .  A
O315       Co332   2.005       .  S
O316        C317   1.256       .  A
O316       Co331   1.991       .  S
C317        C408   1.498       .  S
C318       C1108   1.487       .  S
C319       C1052   1.487       .  S
C320        C436   1.496       .  S
O321        C334   1.271       .  A
O321       Co329   1.996       .  S
O322        C335   1.279       .  A
O322       Co330   1.927       .  S
O323        C336   1.295       .  A
O323       Co331   2.078       .  S
O324        C337   1.277       .  A
O324       Co332   2.035       .  S
O325        C337   1.272       .  A
O325       Co330   1.993       .  S
O326        C336   1.274       .  A
O326       Co329   1.912       .  S
O327        C334   1.260       .  A
O327       Co332   1.984       .  S
O328        C335   1.297       .  A
O328       Co331   2.058       .  S
Co329       O333   1.959       .  S
Co330       O333   1.924       .  S
Co331       O333   2.218       .  S
Co332       O333   2.080       .  S
C334        C707   1.477       .  S
C335       C1491   1.495       .  S
C336       C1528   1.478       .  S
C337        C791   1.491       .  S
O338        C346   1.277       .  A
O338       Co358   2.014       .  S
O339        C347   1.275       .  A
O339       Co359   1.988       .  S
O340        C348   1.290       .  A
O340       Co360   2.112       .  S
O341        C349   1.273       .  A
O341       Co361   1.990       .  S
O342        C348   1.275       .  A
O342       Co359   1.903       .  S
O343        C349   1.272       .  A
O343       Co358   1.999       .  S
O344        C347   1.280       .  A
O344       Co361   2.020       .  S
O345        C346   1.275       .  A
O345       Co360   1.993       .  S
C346        C763   1.498       .  S
C347       C1136   1.492       .  S
C348        C828   1.470       .  S
C349       C1192   1.487       .  S
O350        C363   1.283       .  A
O350       Co358   2.027       .  S
O351        C364   1.291       .  A
O351       Co359   2.111       .  S
O352        C365   1.285       .  A
O352       Co360   2.013       .  S
O353        C366   1.271       .  A
O353       Co361   1.996       .  S
O354        C366   1.274       .  A
O354       Co359   2.011       .  S
O355        C365   1.273       .  A
O355       Co358   2.000       .  S
O356        C363   1.273       .  A
O356       Co361   1.997       .  S
O357        C364   1.281       .  A
O357       Co360   1.930       .  S
Co358       O362   2.021       .  S
Co359       O362   1.981       .  S
Co360       O362   1.966       .  S
Co361       O362   2.009       .  S
C363       C1388   1.490       .  S
C364        C464   1.500       .  S
C365       C1416   1.498       .  S
C366        C380   1.477       .  S
C367        C368   1.403       .  A
C367        C372   1.405       .  A
C367        H377   1.075       .  S
C368        C373   1.495       .  S
C368        C369   1.413       .  A
C369        C370   1.408       .  A
C369        N374   1.427       .  S
C370        C371   1.404       .  A
C370        H375   1.080       .  S
C371        C372   1.410       .  A
C372        N376   1.428       .  S
C373        C378   1.417       .  A
C373        C382   1.406       .  A
N374        O389   1.262       .  A
N374        O390   1.262       .  A
N376        O387   1.262       .  A
N376        O388   1.262       .  A
C378        C379   1.408       .  A
C378        N383   1.426       .  S
C379        C380   1.399       .  A
C379        H384   1.083       .  S
C380        C381   1.407       .  A
C381        C382   1.402       .  A
C381        N385   1.429       .  S
C382        H386   1.085       .  S
N383        O393   1.260       .  A
N383        O394   1.262       .  A
N385        O391   1.262       .  A
N385        O392   1.262       .  A
C395        C396   1.410       .  A
C395        C400   1.411       .  A
C395        H405   1.084       .  S
C396        C401   1.491       .  S
C396        C397   1.411       .  A
C397        C398   1.398       .  A
C397        N402   1.428       .  S
C398        C399   1.401       .  A
C398        H403   1.083       .  S
C399        C400   1.406       .  A
C400        N404   1.429       .  S
C401        C406   1.409       .  A
C401        C410   1.406       .  A
N402        O417   1.262       .  A
N402        O418   1.261       .  A
N404        O415   1.262       .  A
N404        O416   1.262       .  A
C406        C407   1.403       .  A
C406        N411   1.430       .  S
C407        C408   1.408       .  A
C407        H412   1.068       .  S
C408        C409   1.415       .  A
C409        C410   1.410       .  A
C409        N413   1.428       .  S
C410        H414   1.079       .  S
N411        O421   1.262       .  A
N411        O422   1.261       .  A
N413        O419   1.262       .  A
N413        O420   1.262       .  A
C423        C424   1.410       .  A
C423        C428   1.413       .  A
C423        H433   1.080       .  S
C424        C429   1.503       .  S
C424        C425   1.417       .  A
C425        C426   1.397       .  A
C425        N430   1.429       .  S
C426        C427   1.399       .  A
C426        H431   1.081       .  S
C427        C428   1.412       .  A
C428        N432   1.428       .  S
C429        C434   1.417       .  A
C429        C438   1.404       .  A
N430        O445   1.262       .  A
N430        O446   1.262       .  A
N432        O443   1.262       .  A
N432        O444   1.262       .  A
C434        C435   1.408       .  A
C434        N439   1.428       .  S
C435        C436   1.405       .  A
C435        H440   1.082       .  S
C436        C437   1.419       .  A
C437        C438   1.400       .  A
C437        N441   1.431       .  S
C438        H442   1.083       .  S
N439        O449   1.262       .  A
N439        O450   1.262       .  A
N441        O447   1.262       .  A
N441        O448   1.262       .  A
C451        C452   1.403       .  A
C451        C456   1.406       .  A
C451        H461   1.078       .  S
C452        C457   1.501       .  S
C452        C453   1.424       .  A
C453        C454   1.402       .  A
C453        N458   1.426       .  S
C454        C455   1.394       .  A
C454        H459   1.080       .  S
C455        C456   1.414       .  A
C456        N460   1.428       .  S
C457        C462   1.421       .  A
C457        C466   1.394       .  A
N458        O473   1.261       .  A
N458        O474   1.262       .  A
N460        O471   1.262       .  A
N460        O472   1.262       .  A
C462        C463   1.418       .  A
C462        N467   1.427       .  S
C463        C464   1.407       .  A
C463        H468   1.080       .  S
C464        C465   1.424       .  A
C465        C466   1.389       .  A
C465        N469   1.429       .  S
C466        H470   1.079       .  S
N467        O477   1.262       .  A
N467        O478   1.262       .  A
N469        O475   1.262       .  A
N469        O476   1.261       .  A
C479        C480   1.404       .  A
C479        C484   1.403       .  A
C479        H489   1.084       .  S
C480        C485   1.494       .  S
C480        C481   1.414       .  A
C481        C482   1.399       .  A
C481        N486   1.422       .  S
C482        C483   1.394       .  A
C482        H487   1.083       .  S
C483        C484   1.411       .  A
C484        N488   1.436       .  S
C485        C490   1.413       .  A
C485        C494   1.407       .  A
N486        O501   1.262       .  A
N486        O502   1.261       .  A
N488        O499   1.262       .  A
N488        O500   1.263       .  A
C490        C491   1.396       .  A
C490        N495   1.430       .  S
C491        C492   1.406       .  A
C491        H496   1.080       .  S
C492        C493   1.419       .  A
C493        C494   1.411       .  A
C493        N497   1.428       .  S
C494        H498   1.080       .  S
N495        O505   1.262       .  A
N495        O506   1.262       .  A
N497        O503   1.262       .  A
N497        O504   1.261       .  A
C507        C508   1.404       .  A
C507        C512   1.400       .  A
C507        H517   1.074       .  S
C508        C513   1.502       .  S
C508        C509   1.429       .  A
C509        C510   1.404       .  A
C509        N514   1.432       .  S
C510        C511   1.397       .  A
C510        H515   1.080       .  S
C511        C512   1.412       .  A
C512        N516   1.430       .  S
C513        C518   1.424       .  A
C513        C522   1.398       .  A
N514        O529   1.262       .  A
N514        O530   1.260       .  A
N516        O527   1.262       .  A
N516        O528   1.262       .  A
C518        C519   1.412       .  A
C518        N523   1.430       .  S
C519        C520   1.406       .  A
C519        H524   1.076       .  S
C520        C521   1.415       .  A
C521        C522   1.393       .  A
C521        N525   1.428       .  S
C522        H526   1.069       .  S
N523        O533   1.262       .  A
N523        O534   1.262       .  A
N525        O531   1.261       .  A
N525        O532   1.262       .  A
C535        C536   1.397   1_455  A
C535        C540   1.408       .  A
C535        H545   1.083       .  S
C536        C541   1.488       .  S
C536        C537   1.403       .  A
C537        C538   1.406       .  A
C537        N542   1.429       .  S
C538        C539   1.416   1_655  A
C538        H543   1.083       .  S
C539        C540   1.427       .  A
C540        N544   1.429       .  S
C541        C546   1.410       .  A
C541        C550   1.405       .  A
N542        O557   1.262       .  A
N542        O558   1.262       .  A
N544        O555   1.262       .  A
N544        O556   1.260       .  A
C546        C547   1.403       .  A
C546        N551   1.428       .  S
C547        C548   1.401       .  A
C547        H552   1.079       .  S
C548        C549   1.409       .  A
C549        C550   1.405       .  A
C549        N553   1.428   1_655  S
C550        H554   1.080   1_655  S
N551        O561   1.261   1_655  A
N551        O562   1.262       .  A
N553        O559   1.261       .  A
N553        O560   1.262   1_455  A
C563        C564   1.399       .  A
C563        C568   1.399       .  A
C563        H573   1.081       .  S
C564        C569   1.483       .  S
C564        C565   1.410   1_565  A
C565        C566   1.405       .  A
C565        N570   1.427       .  S
C566        C567   1.404   1_545  A
C566        H571   1.077       .  S
C567        C568   1.419       .  A
C568        N572   1.429       .  S
C569        C574   1.406       .  A
C569        C578   1.402   1_565  A
N570        O585   1.262       .  A
N570        O586   1.261       .  A
N572        O583   1.262       .  A
N572        O584   1.262       .  A
C574        C575   1.400       .  A
C574        N579   1.426       .  S
C575        C576   1.404       .  A
C575        H580   1.076       .  S
C576        C577   1.414   1_565  A
C577        C578   1.403       .  A
C577        N581   1.428       .  S
C578        H582   1.081       .  S
N579        O589   1.261       .  A
N579        O590   1.262       .  A
N581        O587   1.261   1_655  A
N581        O588   1.262       .  A
C591        C592   1.399       .  A
C591        C596   1.404       .  A
C591        H601   1.081       .  S
C592        C597   1.487       .  S
C592        C593   1.410       .  A
C593        C594   1.404       .  A
C593        N598   1.427       .  S
C594        C595   1.407       .  A
C594        H599   1.077       .  S
C595        C596   1.416       .  A
C596        N600   1.427       .  S
C597        C602   1.412       .  A
C597        C606   1.399       .  A
N598        O613   1.262       .  A
N598        O614   1.261       .  A
N600        O611   1.262   1_545  A
N600        O612   1.261       .  A
C602        C603   1.409       .  A
C602        N607   1.426       .  S
C603        C604   1.404       .  A
C603        H608   1.079       .  S
C604        C605   1.415       .  A
C605        C606   1.398       .  A
C605        N609   1.427       .  S
C606        H610   1.081       .  S
N607        O617   1.262       .  A
N607        O618   1.261       .  A
N609        O615   1.261       .  A
N609        O616   1.262       .  A
C619        C620   1.403       .  A
C619        C624   1.410       .  A
C619        H629   1.078       .  S
C620        C625   1.499       .  S
C620        C621   1.414       .  A
C621        C622   1.396       .  A
C621        N626   1.430       .  S
C622        C623   1.405       .  A
C622        H627   1.079   1_655  S
C623        C624   1.426       .  A
C624        N628   1.431   1_655  S
C625        C630   1.412       .  A
C625        C634   1.398   1_655  A
N626        O641   1.262   1_655  A
N626        O642   1.261       .  A
N628        O639   1.260   1_455  A
N628        O640   1.262       .  A
C630        C631   1.412       .  A
C630        N635   1.429       .  S
C631        C632   1.414   1_655  A
C631        H636   1.033       .  S
C632        C633   1.422       .  A
C633        C634   1.399       .  A
C633        N637   1.427       .  S
C634        H638   1.073       .  S
N635        O645   1.262       .  A
N635        O646   1.262       .  A
N637        O643   1.262       .  A
N637        O644   1.262       .  A
C647        C648   1.405       .  A
C647        C652   1.405       .  A
C647        H657   1.079       .  S
C648        C653   1.495       .  S
C648        C649   1.414   1_565  A
C649        C650   1.404       .  A
C649        N654   1.429       .  S
C650        C651   1.403       .  A
C650        H655   1.078       .  S
C651        C652   1.410   1_545  A
C652        N656   1.427       .  S
C653        C658   1.411       .  A
C653        C662   1.403   1_565  A
N654        O669   1.262       .  A
N654        O670   1.262   1_545  A
N656        O667   1.262       .  A
N656        O668   1.262   1_565  A
C658        C659   1.401       .  A
C658        N663   1.428       .  S
C659        C660   1.406   1_565  A
C659        H664   1.080       .  S
C660        C661   1.423       .  A
C661        C662   1.407       .  A
C661        N665   1.431       .  S
C662        H666   1.079       .  S
N663        O673   1.262       .  A
N663        O674   1.262       .  A
N665        O671   1.262       .  A
N665        O672   1.261       .  A
C675        C676   1.409       .  A
C675        C680   1.412       .  A
C675        H685   1.080       .  S
C676        C681   1.513       .  S
C676        C677   1.422       .  A
C677        C678   1.399       .  A
C677        N682   1.429       .  S
C678        C679   1.399       .  A
C678        H683   1.082       .  S
C679        C680   1.419       .  A
C680        N684   1.437       .  S
C681        C686   1.417       .  A
C681        C690   1.401       .  A
N682        O697   1.263       .  A
N682        O698   1.262       .  A
N684        O695   1.263       .  A
N684        O696   1.262   1_565  A
C686        C687   1.409       .  A
C686        N691   1.429       .  S
C687        C688   1.412       .  A
C687        H692   1.062       .  S
C688        C689   1.426       .  A
C689        C690   1.404       .  A
C689        N693   1.425       .  S
C690        H694   1.073       .  S
N691        O701   1.262       .  A
N691        O702   1.262       .  A
N693        O699   1.262       .  A
N693        O700   1.262       .  A
C703        C704   1.397       .  A
C703        C708   1.393       .  A
C703        H713   1.078       .  S
C704        C709   1.488       .  S
C704        C705   1.418       .  A
C705        C706   1.402       .  A
C705        N710   1.429       .  S
C706        C707   1.399       .  A
C706        H711   1.080       .  S
C707        C708   1.420       .  A
C708        N712   1.431       .  S
C709        C714   1.420       .  A
C709        C718   1.406       .  A
N710        O725   1.262       .  A
N710        O726   1.262       .  A
N712        O723   1.262       .  A
N712        O724   1.260       .  A
C714        C715   1.389       .  A
C714        N719   1.431       .  S
C715        C716   1.397       .  A
C715        H720   1.078       .  S
C716        C717   1.404       .  A
C717        C718   1.401       .  A
C717        N721   1.427       .  S
C718        H722   1.078       .  S
N719        O729   1.262       .  A
N719        O730   1.262       .  A
N721        O727   1.262       .  A
N721        O728   1.261       .  A
C731        C732   1.405       .  A
C731        C736   1.399       .  A
C731        H741   1.085       .  S
C732        C737   1.487       .  S
C732        C733   1.411       .  A
C733        C734   1.408       .  A
C733        N738   1.427       .  S
C734        C735   1.403       .  A
C734        H739   1.082       .  S
C735        C736   1.407       .  A
C736        N740   1.431       .  S
C737        C742   1.406       .  A
C737        C746   1.399       .  A
N738        O753   1.260       .  A
N738        O754   1.262       .  A
N740        O751   1.262       .  A
N740        O752   1.262       .  A
C742        C743   1.410       .  A
C742        N747   1.428       .  S
C743        C744   1.408       .  A
C743        H748   1.084       .  S
C744        C745   1.417       .  A
C745        C746   1.403       .  A
C745        N749   1.429       .  S
C746        H750   1.080       .  S
N747        O757   1.261       .  A
N747        O758   1.262       .  A
N749        O755   1.262       .  A
N749        O756   1.262       .  A
C759        C760   1.408       .  A
C759        C764   1.413       .  A
C759        H769   1.080       .  S
C760        C765   1.488       .  S
C760        C761   1.409       .  A
C761        C762   1.393       .  A
C761        N766   1.430       .  S
C762        C763   1.408       .  A
C762        H767   1.080       .  S
C763        C764   1.418       .  A
C764        N768   1.429       .  S
C765        C770   1.416       .  A
C765        C774   1.402       .  A
N766        O781   1.262       .  A
N766        O782   1.262       .  A
N768        O779   1.262       .  A
N768        O780   1.262       .  A
C770        C771   1.404       .  A
C770        N775   1.428       .  S
C771        C772   1.398       .  A
C771        H776   1.083       .  S
C772        C773   1.412       .  A
C773        C774   1.400       .  A
C773        N777   1.436       .  S
C774        H778   1.085       .  S
N775        O785   1.261       .  A
N775        O786   1.262       .  A
N777        O783   1.262       .  A
N777        O784   1.263       .  A
C787        C788   1.402       .  A
C787        C792   1.397       .  A
C787        H797   1.081       .  S
C788        C793   1.501       .  S
C788        C789   1.417       .  A
C789        C790   1.416       .  A
C789        N794   1.428       .  S
C790        C791   1.408       .  A
C790        H795   1.080       .  S
C791        C792   1.412       .  A
C792        N796   1.428       .  S
C793        C798   1.417       .  A
C793        C802   1.409       .  A
N794        O809   1.262       .  A
N794        O810   1.261       .  A
N796        O807   1.262       .  A
N796        O808   1.261       .  A
C798        C799   1.397       .  A
C798        N803   1.429       .  S
C799        C800   1.397       .  A
C799        H804   1.083       .  S
C800        C801   1.410       .  A
C801        C802   1.414       .  A
C801        N805   1.429       .  S
C802        H806   1.084       .  S
N803        O813   1.262       .  A
N803        O814   1.262       .  A
N805        O811   1.262       .  A
N805        O812   1.261       .  A
C815        C816   1.410       .  A
C815        C820   1.406       .  A
C815        H825   1.078       .  S
C816        C821   1.504       .  S
C816        C817   1.415       .  A
C817        C818   1.401       .  A
C817        N822   1.428       .  S
C818        C819   1.405       .  A
C818        H823   1.081       .  S
C819        C820   1.408       .  A
C820        N824   1.428       .  S
C821        C826   1.420       .  A
C821        C830   1.412       .  A
N822        O837   1.262       .  A
N822        O838   1.262       .  A
N824        O835   1.262       .  A
N824        O836   1.261       .  A
C826        C827   1.397       .  A
C826        N831   1.430       .  S
C827        C828   1.396       .  A
C827        H832   1.081       .  S
C828        C829   1.403       .  A
C829        C830   1.409       .  A
C829        N833   1.426       .  S
C830        H834   1.082       .  S
N831        O841   1.262       .  A
N831        O842   1.262       .  A
N833        O839   1.261       .  A
N833        O840   1.261       .  A
C843        C844   1.406       .  A
C843        C848   1.392       .  A
C843        H853   1.085       .  S
C844        C849   1.493       .  S
C844        C845   1.418       .  A
C845        C846   1.408       .  A
C845        N850   1.427       .  S
C846        C847   1.399       .  A
C846        H851   1.082       .  S
C847        C848   1.404       .  A
C848        N852   1.429       .  S
C849        C854   1.416       .  A
C849        C858   1.402       .  A
N850        O865   1.262       .  A
N850        O866   1.261       .  A
N852        O863   1.262       .  A
N852        O864   1.261       .  A
C854        C855   1.408       .  A
C854        N859   1.427       .  S
C855        C856   1.403       .  A
C855        H860   1.080       .  S
C856        C857   1.420       .  A
C857        C858   1.397       .  A
C857        N861   1.432       .  S
C858        H862   1.081       .  S
N859        O869   1.262       .  A
N859        O870   1.262       .  A
N861        O867   1.262       .  A
N861        O868   1.261       .  A
C871        C872   1.402       .  A
C871        C876   1.402       .  A
C871        H881   1.078       .  S
C872        C877   1.506       .  S
C872        C873   1.414       .  A
C873        C874   1.409       .  A
C873        N878   1.428       .  S
C874        C875   1.410       .  A
C874        H879   1.074       .  S
C875        C876   1.423       .  A
C876        N880   1.426       .  S
C877        C882   1.416       .  A
C877        C886   1.410       .  A
N878        O893   1.262       .  A
N878        O894   1.262       .  A
N880        O891   1.262       .  A
N880        O892   1.262       .  A
C882        C883   1.394       .  A
C882        N887   1.430       .  S
C883        C884   1.396       .  A
C883        H888   1.064       .  S
C884        C885   1.419       .  A
C885        C886   1.418       .  A
C885        N889   1.440       .  S
C886        H890   1.080       .  S
N887        O897   1.262       .  A
N887        O898   1.262       .  A
N889        O895   1.263       .  A
N889        O896   1.263       .  A
C899        C900   1.404       .  A
C899        C904   1.409       .  A
C899        H909   1.080       .  S
C900        C905   1.503       .  S
C900        C901   1.414       .  A
C901        C902   1.409       .  A
C901        N906   1.428       .  S
C902        C903   1.406       .  A
C902        H907   1.079       .  S
C903        C904   1.421       .  A
C904        N908   1.431       .  S
C905        C910   1.418       .  A
C905        C914   1.408       .  A
N906        O921   1.262       .  A
N906        O922   1.262       .  A
N908        O919   1.261       .  A
N908        O920   1.261       .  A
C910        C911   1.408       .  A
C910        N915   1.428       .  S
C911        C912   1.399       .  A
C911        H916   1.081       .  S
C912        C913   1.407       .  A
C913        C914   1.409       .  A
C913        N917   1.427       .  S
C914        H918   1.084       .  S
N915        O925   1.262       .  A
N915        O926   1.262       .  A
N917        O923   1.261       .  A
N917        O924   1.261       .  A
C927        C928   1.406       .  A
C927        C932   1.414       .  A
C927        H937   1.083       .  S
C928        C933   1.493       .  S
C928        C929   1.412       .  A
C929        C930   1.395       .  A
C929        N934   1.429       .  S
C930        C931   1.400       .  A
C930        H935   1.081       .  S
C931        C932   1.421       .  A
C932        N936   1.442       .  S
C933        C938   1.416       .  A
C933        C942   1.401       .  A
N934        O949   1.262       .  A
N934        O950   1.262       .  A
N936        O947   1.263       .  A
N936        O948   1.263       .  A
C938        C939   1.410       .  A
C938        N943   1.429       .  S
C939        C940   1.406       .  A
C939        H944   1.079       .  S
C940        C941   1.408       .  A
C941        C942   1.397       .  A
C941        N945   1.427       .  S
C942        H946   1.080       .  S
N943        O953   1.262       .  A
N943        O954   1.262       .  A
N945        O951   1.262       .  A
N945        O952   1.262       .  A
C955        C956   1.397       .  A
C955        C960   1.401       .  A
C955        H965   1.083       .  S
C956        C961   1.477       .  S
C956        C957   1.404       .  A
C957        C958   1.403       .  A
C957        N962   1.429       .  S
C958        C959   1.407       .  A
C958        H963   1.082       .  S
C959        C960   1.417       .  A
C960        N964   1.427       .  S
C961        C966   1.403       .  A
C961        C970   1.397       .  A
N962        O977   1.262       .  A
N962        O978   1.262       .  A
N964        O975   1.262       .  A
N964        O976   1.261       .  A
C966        C967   1.401       .  A
C966        N971   1.424       .  S
C967        C968   1.404       .  A
C967        H972   1.048       .  S
C968        C969   1.418       .  A
C969        C970   1.400       .  A
C969        N973   1.428       .  S
C970        H974   1.078       .  S
N971        O981   1.262       .  A
N971        O982   1.261       .  A
N973        O979   1.262       .  A
N973        O980   1.262       .  A
C983        C984   1.402       .  A
C983        C988   1.405       .  A
C983        H993   1.080       .  S
C984        C989   1.494       .  S
C984        C985   1.413       .  A
C985        C986   1.403       .  A
C985        N990   1.429       .  S
C986        C987   1.403       .  A
C986        H991   1.077       .  S
C987        C988   1.416       .  A
C988        N992   1.427       .  S
C989        C994   1.416       .  A
C989        C998   1.405       .  A
N990       O1005   1.262       .  A
N990       O1006   1.262       .  A
N992       O1003   1.261       .  A
N992       O1004   1.260       .  A
C994        C995   1.401       .  A
C994        N999   1.424       .  S
C995        C996   1.393       .  A
C995       H1000   1.078       .  S
C996        C997   1.408       .  A
C997        C998   1.403       .  A
C997       N1001   1.428       .  S
C998       H1002   1.083       .  S
N999       O1009   1.262       .  A
N999       O1010   1.260       .  A
N1001      O1007   1.262       .  A
N1001      O1008   1.262       .  A
C1011      C1012   1.402       .  A
C1011      C1016   1.404       .  A
C1011      H1021   1.081       .  S
C1012      C1017   1.484       .  S
C1012      C1013   1.409       .  A
C1013      C1014   1.398       .  A
C1013      N1018   1.429       .  S
C1014      C1015   1.403       .  A
C1014      H1019   1.079       .  S
C1015      C1016   1.417       .  A
C1016      N1020   1.431       .  S
C1017      C1022   1.409       .  A
C1017      C1026   1.406       .  A
N1018      O1033   1.262       .  A
N1018      O1034   1.261       .  A
N1020      O1031   1.260       .  A
N1020      O1032   1.261       .  A
C1022      C1023   1.397       .  A
C1022      N1027   1.429       .  S
C1023      C1024   1.404       .  A
C1023      H1028   1.079       .  S
C1024      C1025   1.412       .  A
C1025      C1026   1.406       .  A
C1025      N1029   1.428       .  S
C1026      H1030   1.080       .  S
N1027      O1037   1.262       .  A
N1027      O1038   1.262       .  A
N1029      O1035   1.262       .  A
N1029      O1036   1.262       .  A
C1039      C1040   1.407       .  A
C1039      C1044   1.400       .  A
C1039      H1049   1.077       .  S
C1040      C1045   1.496       .  S
C1040      C1041   1.416       .  A
C1041      C1042   1.404       .  A
C1041      N1046   1.429       .  S
C1042      C1043   1.401       .  A
C1042      H1047   1.079       .  S
C1043      C1044   1.409       .  A
C1044      N1048   1.429       .  S
C1045      C1050   1.413       .  A
C1045      C1054   1.409       .  A
N1046      O1061   1.262       .  A
N1046      O1062   1.261       .  A
N1048      O1059   1.262       .  A
N1048      O1060   1.262       .  A
C1050      C1051   1.399       .  A
C1050      N1055   1.430       .  S
C1051      C1052   1.406       .  A
C1051      H1056   1.080       .  S
C1052      C1053   1.412       .  A
C1053      C1054   1.407       .  A
C1053      N1057   1.429       .  S
C1054      H1058   1.077       .  S
N1055      O1065   1.262       .  A
N1055      O1066   1.261       .  A
N1057      O1063   1.262       .  A
N1057      O1064   1.261       .  A
C1067      C1068   1.400       .  A
C1067      C1072   1.398       .  A
C1067      H1077   1.076       .  S
C1068      C1073   1.487       .  S
C1068      C1069   1.410       .  A
C1069      C1070   1.410       .  A
C1069      N1074   1.428       .  S
C1070      C1071   1.406       .  A
C1070      H1075   1.080       .  S
C1071      C1072   1.412       .  A
C1072      N1076   1.429       .  S
C1073      C1078   1.404       .  A
C1073      C1082   1.410       .  A
N1074      O1089   1.262       .  A
N1074      O1090   1.262       .  A
N1076      O1087   1.262       .  A
N1076      O1088   1.262       .  A
C1078      C1079   1.388       .  A
C1078      N1083   1.430       .  S
C1079      C1080   1.404       .  A
C1079      H1084   1.075       .  S
C1080      C1081   1.416       .  A
C1081      C1082   1.419       .  A
C1081      N1085   1.428       .  S
C1082      H1086   1.079       .  S
N1083      O1093   1.262       .  A
N1083      O1094   1.262       .  A
N1085      O1091   1.262       .  A
N1085      O1092   1.261       .  A
C1095      C1096   1.407       .  A
C1095      C1100   1.401       .  A
C1095      H1105   1.080       .  S
C1096      C1101   1.486       .  S
C1096      C1097   1.410       .  A
C1097      C1098   1.395       .  A
C1097      N1102   1.429       .  S
C1098      C1099   1.404       .  A
C1098      H1103   1.081       .  S
C1099      C1100   1.409       .  A
C1100      N1104   1.428       .  S
C1101      C1106   1.411       .  A
C1101      C1110   1.407       .  A
N1102      O1117   1.262       .  A
N1102      O1118   1.262       .  A
N1104      O1115   1.262       .  A
N1104      O1116   1.262       .  A
C1106      C1107   1.385       .  A
C1106      N1111   1.431       .  S
C1107      C1108   1.404       .  A
C1107      H1112   1.079       .  S
C1108      C1109   1.414       .  A
C1109      C1110   1.408       .  A
C1109      N1113   1.427       .  S
C1110      H1114   1.079       .  S
N1111      O1121   1.262       .  A
N1111      O1122   1.262       .  A
N1113      O1119   1.262       .  A
N1113      O1120   1.262       .  A
C1123      C1124   1.407       .  A
C1123      C1128   1.401       .  A
C1123      H1133   1.074       .  S
C1124      C1129   1.506       .  S
C1124      C1125   1.419       .  A
C1125      C1126   1.409       .  A
C1125      N1130   1.429       .  S
C1126      C1127   1.403       .  A
C1126      H1131   1.080       .  S
C1127      C1128   1.410       .  A
C1128      N1132   1.429       .  S
C1129      C1134   1.416       .  A
C1129      C1138   1.411       .  A
N1130      O1145   1.262       .  A
N1130      O1146   1.262       .  A
N1132      O1143   1.262       .  A
N1132      O1144   1.262       .  A
C1134      C1135   1.397       .  A
C1134      N1139   1.428       .  S
C1135      C1136   1.403       .  A
C1135      H1140   1.079       .  S
C1136      C1137   1.412       .  A
C1137      C1138   1.411       .  A
C1137      N1141   1.427       .  S
C1138      H1142   1.076       .  S
N1139      O1149   1.262       .  A
N1139      O1150   1.258       .  A
N1141      O1147   1.262       .  A
N1141      O1148   1.261       .  A
C1151      C1152   1.402       .  A
C1151      C1156   1.396       .  A
C1151      H1161   1.081       .  S
C1152      C1157   1.480       .  S
C1152      C1153   1.408       .  A
C1153      C1154   1.402       .  A
C1153      N1158   1.427       .  S
C1154      C1155   1.401       .  A
C1154      H1159   1.080       .  S
C1155      C1156   1.413       .  A
C1156      N1160   1.431       .  S
C1157      C1162   1.405       .  A
C1157      C1166   1.399       .  A
N1158      O1173   1.262       .  A
N1158      O1174   1.262       .  A
N1160      O1171   1.262       .  A
N1160      O1172   1.261       .  A
C1162      C1163   1.403       .  A
C1162      N1167   1.429       .  S
C1163      C1164   1.407       .  A
C1163      H1168   1.085       .  S
C1164      C1165   1.415       .  A
C1165      C1166   1.403       .  A
C1165      N1169   1.428       .  S
C1166      H1170   1.082       .  S
N1167      O1177   1.262       .  A
N1167      O1178   1.262       .  A
N1169      O1175   1.262       .  A
N1169      O1176   1.262       .  A
C1179      C1180   1.404       .  A
C1179      C1184   1.402       .  A
C1179      H1189   1.068       .  S
C1180      C1185   1.473       .  S
C1180      C1181   1.404       .  A
C1181      C1182   1.392       .  A
C1181      N1186   1.429       .  S
C1182      C1183   1.403       .  A
C1182      H1187   1.080       .  S
C1183      C1184   1.407       .  A
C1184      N1188   1.429       .  S
C1185      C1190   1.405       .  A
C1185      C1194   1.402       .  A
N1186      O1201   1.261       .  A
N1186      O1202   1.262       .  A
N1188      O1199   1.262       .  A
N1188      O1200   1.262       .  A
C1190      C1191   1.383       .  A
C1190      N1195   1.431       .  S
C1191      C1192   1.406       .  A
C1191      H1196   1.080       .  S
C1192      C1193   1.417       .  A
C1193      C1194   1.410       .  A
C1193      N1197   1.427       .  S
C1194      H1198   1.080       .  S
N1195      O1205   1.262       .  A
N1195      O1206   1.262       .  A
N1197      O1203   1.262       .  A
N1197      O1204   1.262       .  A
C1207      C1208   1.403       .  A
C1207      C1212   1.407       .  A
C1207      H1217   1.081       .  S
C1208      C1213   1.498       .  S
C1208      C1209   1.412       .  A
C1209      C1210   1.406       .  A
C1209      N1214   1.427       .  S
C1210      C1211   1.405       .  A
C1210      H1215   1.080       .  S
C1211      C1212   1.420       .  A
C1212      N1216   1.430       .  S
C1213      C1218   1.410       .  A
C1213      C1222   1.406       .  A
N1214      O1229   1.262       .  A
N1214      O1230   1.261       .  A
N1216      O1227   1.262       .  A
N1216      O1228   1.262       .  A
C1218      C1219   1.400       .  A
C1218      N1223   1.426       .  S
C1219      C1220   1.409       .  A
C1219      H1224   1.078       .  S
C1220      C1221   1.421       .  A
C1221      C1222   1.413       .  A
C1221      N1225   1.428       .  S
C1222      H1226   1.080       .  S
N1223      O1233   1.260       .  A
N1223      O1234   1.260       .  A
N1225      O1231   1.262       .  A
N1225      O1232   1.262       .  A
C1235      C1236   1.406       .  A
C1235      C1240   1.400       .  A
C1235      H1245   1.079       .  S
C1236      C1241   1.519       .  S
C1236      C1237   1.426   1_556  A
C1237      C1238   1.408       .  A
C1237      N1242   1.430       .  S
C1238      C1239   1.405   1_554  A
C1238      H1243   1.085       .  S
C1239      C1240   1.411       .  A
C1240      N1244   1.426   1_455  S
C1241      C1246   1.428       .  A
C1241      C1250   1.410   1_556  A
N1242      O1257   1.262       .  A
N1242      O1258   1.260   1_554  A
N1244      O1255   1.262   1_556  A
N1244      O1256   1.262       .  A
C1246      C1247   1.396       .  A
C1246      N1251   1.430       .  S
C1247      C1248   1.397       .  A
C1247      H1252   1.087       .  S
C1248      C1249   1.414   1_556  A
C1249      C1250   1.405       .  A
C1249      N1253   1.436       .  S
C1250      H1254   1.099       .  S
N1251      O1261   1.263       .  A
N1251      O1262   1.261       .  A
N1253      O1259   1.262   1_554  A
N1253      O1260   1.263       .  A
C1263      C1264   1.401       .  A
C1263      C1268   1.404       .  A
C1263      H1273   1.081       .  S
C1264      C1269   1.504       .  S
C1264      C1265   1.415   1_655  A
C1265      C1266   1.413       .  A
C1265      N1270   1.428       .  S
C1266      C1267   1.411   1_455  A
C1266      H1271   1.073       .  S
C1267      C1268   1.421       .  A
C1268      N1272   1.425       .  S
C1269      C1274   1.414   1_655  A
C1269      C1278   1.406       .  A
N1270      O1285   1.262       .  A
N1270      O1286   1.262       .  A
N1272      O1283   1.262       .  A
N1272      O1284   1.262       .  A
C1274      C1275   1.406       .  A
C1274      N1279   1.428       .  S
C1275      C1276   1.409   1_455  A
C1275      H1280   1.080       .  S
C1276      C1277   1.419       .  A
C1277      C1278   1.408       .  A
C1277      N1281   1.429       .  S
C1278      H1282   1.081       .  S
N1279      O1289   1.262       .  A
N1279      O1290   1.262       .  A
N1281      O1287   1.261       .  A
N1281      O1288   1.262       .  A
C1291      C1292   1.407       .  A
C1291      C1296   1.407       .  A
C1291      H1301   1.072       .  S
C1292      C1297   1.519       .  S
C1292      C1293   1.423       .  A
C1293      C1294   1.403       .  A
C1293      N1298   1.428       .  S
C1294      C1295   1.404       .  A
C1294      H1299   1.079       .  S
C1295      C1296   1.421       .  A
C1296      N1300   1.430       .  S
C1297      C1302   1.425       .  A
C1297      C1306   1.410       .  A
N1298      O1313   1.263       .  A
N1298      O1314   1.262       .  A
N1300      O1311   1.263   1_554  A
N1300      O1312   1.261   1_554  A
C1302      C1303   1.399       .  A
C1302      N1307   1.429       .  S
C1303      C1304   1.398       .  A
C1303      H1308   1.079       .  S
C1304      C1305   1.417       .  A
C1305      C1306   1.409       .  A
C1305      N1309   1.434       .  S
C1306      H1310   1.076       .  S
N1307      O1317   1.263       .  A
N1307      O1318   1.262       .  A
N1309      O1315   1.263       .  A
N1309      O1316   1.263       .  A
C1319      C1320   1.402       .  A
C1319      C1324   1.409       .  A
C1319      H1329   1.081       .  S
C1320      C1325   1.493       .  S
C1320      C1321   1.408   1_556  A
C1321      C1322   1.402       .  A
C1321      N1326   1.428       .  S
C1322      C1323   1.408   1_554  A
C1322      H1327   1.080       .  S
C1323      C1324   1.424       .  A
C1324      N1328   1.430       .  S
C1325      C1330   1.410   1_556  A
C1325      C1334   1.405       .  A
N1326      O1341   1.262       .  A
N1326      O1342   1.261       .  A
N1328      O1339   1.262       .  A
N1328      O1340   1.261       .  A
C1330      C1331   1.399       .  A
C1330      N1335   1.429       .  S
C1331      C1332   1.407       .  A
C1331      H1336   1.078       .  S
C1332      C1333   1.418   1_554  A
C1333      C1334   1.411       .  A
C1333      N1337   1.428       .  S
C1334      H1338   1.080       .  S
N1335      O1345   1.262       .  A
N1335      O1346   1.261       .  A
N1337      O1343   1.262       .  A
N1337      O1344   1.262       .  A
C1347      C1348   1.408       .  A
C1347      C1352   1.413       .  A
C1347      H1357   1.084       .  S
C1348      C1353   1.496       .  S
C1348      C1349   1.410       .  A
C1349      C1350   1.400       .  A
C1349      N1354   1.428       .  S
C1350      C1351   1.404       .  A
C1350      H1355   1.082       .  S
C1351      C1352   1.420       .  A
C1352      N1356   1.440       .  S
C1353      C1358   1.412   1_655  A
C1353      C1362   1.406       .  A
N1354      O1369   1.262       .  A
N1354      O1370   1.261       .  A
N1356      O1367   1.262   1_655  A
N1356      O1368   1.263       .  A
C1358      C1359   1.401       .  A
C1358      N1363   1.429       .  S
C1359      C1360   1.404   1_455  A
C1359      H1364   1.074       .  S
C1360      C1361   1.416       .  A
C1361      C1362   1.410       .  A
C1361      N1365   1.426       .  S
C1362      H1366   1.080       .  S
N1363      O1373   1.262       .  A
N1363      O1374   1.262       .  A
N1365      O1371   1.262       .  A
N1365      O1372   1.262       .  A
C1375      C1376   1.405       .  A
C1375      C1380   1.403       .  A
C1375      H1385   1.085       .  S
C1376      C1381   1.488       .  S
C1376      C1377   1.414       .  A
C1377      C1378   1.403       .  A
C1377      N1382   1.428       .  S
C1378      C1379   1.400       .  A
C1378      H1383   1.083       .  S
C1379      C1380   1.407       .  A
C1380      N1384   1.429       .  S
C1381      C1386   1.408       .  A
C1381      C1390   1.407       .  A
N1382      O1397   1.262       .  A
N1382      O1398   1.261       .  A
N1384      O1395   1.262       .  A
N1384      O1396   1.262       .  A
C1386      C1387   1.395       .  A
C1386      N1391   1.428       .  S
C1387      C1388   1.403       .  A
C1387      H1392   1.081       .  S
C1388      C1389   1.417       .  A
C1389      C1390   1.414       .  A
C1389      N1393   1.429       .  S
C1390      H1394   1.080       .  S
N1391      O1401   1.262       .  A
N1391      O1402   1.262       .  A
N1393      O1399   1.262       .  A
N1393      O1400   1.261       .  A
C1403      C1404   1.407       .  A
C1403      C1408   1.414       .  A
C1403      H1413   1.080       .  S
C1404      C1409   1.491       .  S
C1404      C1405   1.407       .  A
C1405      C1406   1.399       .  A
C1405      N1410   1.429       .  S
C1406      C1407   1.409       .  A
C1406      H1411   1.081       .  S
C1407      C1408   1.416       .  A
C1408      N1412   1.427       .  S
C1409      C1414   1.414       .  A
C1409      C1418   1.395       .  A
N1410      O1425   1.262       .  A
N1410      O1426   1.262       .  A
N1412      O1423   1.261       .  A
N1412      O1424   1.262       .  A
C1414      C1415   1.412       .  A
C1414      N1419   1.427       .  S
C1415      C1416   1.406       .  A
C1415      H1420   1.080       .  S
C1416      C1417   1.426       .  A
C1417      C1418   1.399       .  A
C1417      N1421   1.430       .  S
C1418      H1422   1.081       .  S
N1419      O1429   1.262       .  A
N1419      O1430   1.262       .  A
N1421      O1427   1.261       .  A
N1421      O1428   1.262       .  A
C1431      C1432   1.413       .  A
C1431      C1436   1.406       .  A
C1431      H1441   1.085       .  S
C1432      C1437   1.506       .  S
C1432      C1433   1.416       .  A
C1433      C1434   1.404       .  A
C1433      N1438   1.427       .  S
C1434      C1435   1.402       .  A
C1434      H1439   1.082       .  S
C1435      C1436   1.407       .  A
C1436      N1440   1.429       .  S
C1437      C1442   1.420       .  A
C1437      C1446   1.404       .  A
N1438      O1453   1.262       .  A
N1438      O1454   1.262       .  A
N1440      O1451   1.262       .  A
N1440      O1452   1.262       .  A
C1442      C1443   1.408       .  A
C1442      N1447   1.427       .  S
C1443      C1444   1.402       .  A
C1443      H1448   1.081       .  S
C1444      C1445   1.417       .  A
C1445      C1446   1.403       .  A
C1445      N1449   1.428       .  S
C1446      H1450   1.081       .  S
N1447      O1457   1.262       .  A
N1447      O1458   1.262       .  A
N1449      O1455   1.262       .  A
N1449      O1456   1.260       .  A
C1459      C1460   1.405       .  A
C1459      C1464   1.410       .  A
C1459      H1469   1.080       .  S
C1460      C1465   1.478       .  S
C1460      C1461   1.408       .  A
C1461      C1462   1.391       .  A
C1461      N1466   1.430       .  S
C1462      C1463   1.404       .  A
C1462      H1467   1.081       .  S
C1463      C1464   1.415       .  A
C1464      N1468   1.428       .  S
C1465      C1470   1.411       .  A
C1465      C1474   1.398       .  A
N1466      O1481   1.262       .  A
N1466      O1482   1.262       .  A
N1468      O1479   1.262       .  A
N1468      O1480   1.262       .  A
C1470      C1471   1.400       .  A
C1470      N1475   1.429       .  S
C1471      C1472   1.401       .  A
C1471      H1476   1.073       .  S
C1472      C1473   1.417       .  A
C1473      C1474   1.400       .  A
C1473      N1477   1.430       .  S
C1474      H1478   1.080       .  S
N1475      O1485   1.262       .  A
N1475      O1486   1.261       .  A
N1477      O1483   1.262       .  A
N1477      O1484   1.262       .  A
C1487      C1488   1.411       .  A
C1487      C1492   1.408       .  A
C1487      H1497   1.072       .  S
C1488      C1493   1.504       .  S
C1488      C1489   1.414       .  A
C1489      C1490   1.402       .  A
C1489      N1494   1.431       .  S
C1490      C1491   1.406       .  A
C1490      H1495   1.063       .  S
C1491      C1492   1.412       .  A
C1492      N1496   1.429       .  S
C1493      C1498   1.418       .  A
C1493      C1502   1.409       .  A
N1494      O1509   1.262       .  A
N1494      O1510   1.262       .  A
N1496      O1507   1.262       .  A
N1496      O1508   1.262       .  A
C1498      C1499   1.406       .  A
C1498      N1503   1.430       .  S
C1499      C1500   1.404       .  A
C1499      H1504   1.080       .  S
C1500      C1501   1.404       .  A
C1501      C1502   1.401       .  A
C1501      N1505   1.428       .  S
C1502      H1506   1.074       .  S
N1503      O1513   1.262       .  A
N1503      O1514   1.262       .  A
N1505      O1511   1.262       .  A
N1505      O1512   1.262       .  A
C1515      C1516   1.408       .  A
C1515      C1520   1.401       .  A
C1515      H1525   1.085       .  S
C1516      C1521   1.488       .  S
C1516      C1517   1.413       .  A
C1517      C1518   1.401       .  A
C1517      N1522   1.429       .  S
C1518      C1519   1.403       .  A
C1518      H1523   1.083       .  S
C1519      C1520   1.402       .  A
C1520      N1524   1.429       .  S
C1521      C1526   1.414       .  A
C1521      C1530   1.404       .  A
N1522      O1537   1.262       .  A
N1522      O1538   1.261       .  A
N1524      O1535   1.262       .  A
N1524      O1536   1.262       .  A
C1526      C1527   1.403       .  A
C1526      N1531   1.429       .  S
C1527      C1528   1.401       .  A
C1527      H1532   1.082       .  S
C1528      C1529   1.411       .  A
C1529      C1530   1.406       .  A
C1529      N1533   1.427       .  S
C1530      H1534   1.080       .  S
N1531      O1541   1.262       .  A
N1531      O1542   1.262       .  A
N1533      O1539   1.260       .  A
N1533      O1540   1.262       .  A
C1543      C1544   1.403       .  A
C1543      C1548   1.407       .  A
C1543      H1553   1.080       .  S
C1544      C1549   1.490       .  S
C1544      C1545   1.411   1_545  A
C1545      C1546   1.401       .  A
C1545      N1550   1.428       .  S
C1546      C1547   1.403   1_565  A
C1546      H1551   1.080       .  S
C1547      C1548   1.419       .  A
C1548      N1552   1.430       .  S
C1549      C1554   1.414       .  A
C1549      C1558   1.404       .  A
N1550      O1565   1.262       .  A
N1550      O1566   1.261       .  A
N1552      O1563   1.261       .  A
N1552      O1564   1.262       .  A
C1554      C1555   1.401       .  A
C1554      N1559   1.428       .  S
C1555      C1556   1.400       .  A
C1555      H1560   1.079       .  S
C1556      C1557   1.411       .  A
C1557      C1558   1.403       .  A
C1557      N1561   1.429       .  S
C1558      H1562   1.079       .  S
N1559      O1569   1.262       .  A
N1559      O1570   1.262   1_545  A
N1561      O1567   1.262       .  A
N1561      O1568   1.261   1_545  A
C1571      C1572   1.407       .  A
C1571      C1576   1.408       .  A
C1571      H1581   1.080       .  S
C1572      C1577   1.487       .  S
C1572      C1573   1.408   1_556  A
C1573      C1574   1.394       .  A
C1573      N1578   1.426       .  S
C1574      C1575   1.400   1_554  A
C1574      H1579   1.076       .  S
C1575      C1576   1.413       .  A
C1576      N1580   1.429       .  S
C1577      C1582   1.411       .  A
C1577      C1586   1.401       .  A
N1578      O1593   1.261       .  A
N1578      O1594   1.261       .  A
N1580      O1591   1.262       .  A
N1580      O1592   1.262       .  A
C1582      C1583   1.401       .  A
C1582      N1587   1.429       .  S
C1583      C1584   1.404       .  A
C1583      H1588   1.080       .  S
C1584      C1585   1.418       .  A
C1585      C1586   1.403       .  A
C1585      N1589   1.428   1_556  S
C1586      H1590   1.081       .  S
N1587      O1597   1.262       .  A
N1587      O1598   1.261       .  A
N1589      O1595   1.261   1_554  A
N1589      O1596   1.261       .  A
C1599      C1600   1.405       .  A
C1599      C1604   1.406       .  A
C1599      H1609   1.078       .  S
C1600      C1605   1.501       .  S
C1600      C1601   1.417       .  A
C1601      C1602   1.406       .  A
C1601      N1606   1.428       .  S
C1602      C1603   1.402       .  A
C1602      H1607   1.078       .  S
C1603      C1604   1.411       .  A
C1604      N1608   1.427       .  S
C1605      C1610   1.414       .  A
C1605      C1614   1.404   1_556  A
N1606      O1621   1.262   1_556  A
N1606      O1622   1.261       .  A
N1608      O1619   1.262       .  A
N1608      O1620   1.262   1_556  A
C1610      C1611   1.404       .  A
C1610      N1615   1.428       .  S
C1611      C1612   1.406       .  A
C1611      H1616   1.077       .  S
C1612      C1613   1.416   1_556  A
C1613      C1614   1.407       .  A
C1613      N1617   1.427       .  S
C1614      H1618   1.078       .  S
N1615      O1625   1.262       .  A
N1615      O1626   1.262       .  A
N1617      O1623   1.262       .  A
N1617      O1624   1.262       .  A
C1627      C1628   1.407       .  A
C1627      C1632   1.414       .  A
C1627      H1637   1.073       .  S
C1628      C1633   1.515       .  S
C1628      C1629   1.423       .  A
C1629      C1630   1.399       .  A
C1629      N1634   1.429       .  S
C1630      C1631   1.397       .  A
C1630      H1635   1.076       .  S
C1631      C1632   1.424       .  A
C1632      N1636   1.430       .  S
C1633      C1638   1.422       .  A
C1633      C1642   1.399       .  A
N1634      O1649   1.262       .  A
N1634      O1650   1.260       .  A
N1636      O1647   1.262       .  A
N1636      O1648   1.262       .  A
C1638      C1639   1.413       .  A
C1638      N1643   1.428       .  S
C1639      C1640   1.410       .  A
C1639      H1644   1.075       .  S
C1640      C1641   1.422       .  A
C1641      C1642   1.399       .  A
C1641      N1645   1.425       .  S
C1642      H1646   1.075       .  S
N1643      O1653   1.262       .  A
N1643      O1654   1.261       .  A
N1645      O1651   1.262       .  A
N1645      O1652   1.263       .  A
C1655      C1656   1.402       .  A
C1655      C1660   1.412       .  A
C1655      H1665   1.083       .  S
C1656      C1661   1.494       .  S
C1656      C1657   1.409       .  A
C1657      C1658   1.404       .  A
C1657      N1662   1.432       .  S
C1658      C1659   1.408       .  A
C1658      H1663   1.084       .  S
C1659      C1660   1.422       .  A
C1660      N1664   1.428       .  S
C1661      C1666   1.416       .  A
C1661      C1670   1.402       .  A
N1662      O1677   1.262       .  A
N1662      O1678   1.262       .  A
N1664      O1675   1.262   1_554  A
N1664      O1676   1.262       .  A
C1666      C1667   1.410       .  A
C1666      N1671   1.426       .  S
C1667      C1668   1.400       .  A
C1667      H1672   1.079       .  S
C1668      C1669   1.413       .  A
C1669      C1670   1.397       .  A
C1669      N1673   1.429       .  S
C1670      H1674   1.078       .  S
N1671      O1681   1.262       .  A
N1671      O1682   1.262       .  A
N1673      O1679   1.262       .  A
N1673      O1680   1.261       .  A
C1683      C1684   1.412       .  A
C1683      C1688   1.411       .  A
C1683      H1693   1.079       .  S
C1684      C1689   1.524       .  S
C1684      C1685   1.423   1_565  A
C1685      C1686   1.406       .  A
C1685      N1690   1.430       .  S
C1686      C1687   1.405   1_545  A
C1686      H1691   1.071       .  S
C1687      C1688   1.415       .  A
C1688      N1692   1.428       .  S
C1689      C1694   1.423   1_565  A
C1689      C1698   1.410       .  A
N1690      O1705   1.262       .  A
N1690      O1706   1.262       .  A
N1692      O1703   1.261       .  A
N1692      O1704   1.263       .  A
C1694      C1695   1.407       .  A
C1694      N1699   1.429       .  S
C1695      C1696   1.406       .  A
C1695      H1700   1.078   1_545  S
C1696      C1697   1.420       .  A
C1697      C1698   1.411   1_545  A
C1697      N1701   1.432       .  S
C1698      H1702   1.073       .  S
N1699      O1709   1.262   1_545  A
N1699      O1710   1.262       .  A
N1701      O1707   1.261       .  A
N1701      O1708   1.261   1_545  A
C1711      C1712   1.400       .  A
C1711      C1716   1.395       .  A
C1711      H1721   1.076       .  S
C1712      C1717   1.503       .  S
C1712      C1713   1.422       .  A
C1713      C1714   1.412       .  A
C1713      N1718   1.429       .  S
C1714      C1715   1.406       .  A
C1714      H1719   1.080       .  S
C1715      C1716   1.414       .  A
C1716      N1720   1.425       .  S
C1717      C1722   1.423       .  A
C1717      C1726   1.405       .  A
N1718      O1733   1.262       .  A
N1718      O1734   1.262       .  A
N1720      O1731   1.262       .  A
N1720      O1732   1.262       .  A
C1722      C1723   1.405       .  A
C1722      N1727   1.430       .  S
C1723      C1724   1.397       .  A
C1723      H1728   1.079       .  S
C1724      C1725   1.416       .  A
C1725      C1726   1.403       .  A
C1725      N1729   1.432       .  S
C1726      H1730   1.082       .  S
N1727      O1737   1.262       .  A
N1727      O1738   1.262       .  A
N1729      O1735   1.263       .  A
N1729      O1736   1.262       .  A
C1739      C1740   1.410       .  A
C1739      C1744   1.409       .  A
C1739      H1749   1.081       .  S
C1740      C1745   1.496       .  S
C1740      C1741   1.407       .  A
C1741      C1742   1.398       .  A
C1741      N1746   1.423       .  S
C1742      C1743   1.409       .  A
C1742      H1747   1.080       .  S
C1743      C1744   1.413       .  A
C1744      N1748   1.427       .  S
C1745      C1750   1.418       .  A
C1745      C1754   1.402       .  A
N1746      O1761   1.262       .  A
N1746      O1762   1.261       .  A
N1748      O1759   1.261       .  A
N1748      O1760   1.262       .  A
C1750      C1751   1.406       .  A
C1750      N1755   1.428       .  S
C1751      C1752   1.403       .  A
C1751      H1756   1.081       .  S
C1752      C1753   1.416       .  A
C1753      C1754   1.401       .  A
C1753      N1757   1.430       .  S
C1754      H1758   1.081       .  S
N1755      O1765   1.262       .  A
N1755      O1766   1.262       .  A
N1757      O1763   1.261       .  A
N1757      O1764   1.262       .  A
C1767      C1768   1.407       .  A
C1767      C1772   1.413       .  A
C1767      H1777   1.080       .  S
C1768      C1773   1.496       .  S
C1768      C1769   1.409       .  A
C1769      C1770   1.402       .  A
C1769      N1774   1.427       .  S
C1770      C1771   1.406       .  A
C1770      H1775   1.081       .  S
C1771      C1772   1.416       .  A
C1772      N1776   1.429       .  S
C1773      C1778   1.413       .  A
C1773      C1782   1.403       .  A
N1774      O1789   1.261       .  A
N1774      O1790   1.262       .  A
N1776      O1787   1.261       .  A
N1776      O1788   1.262       .  A
C1778      C1779   1.412       .  A
C1778      N1783   1.428       .  S
C1779      C1780   1.407       .  A
C1779      H1784   1.080       .  S
C1780      C1781   1.417       .  A
C1781      C1782   1.402       .  A
C1781      N1785   1.431       .  S
C1782      H1786   1.077       .  S
N1783      O1793   1.262       .  A
N1783      O1794   1.261       .  A
N1785      O1791   1.261       .  A
N1785      O1792   1.262       .  A
C1795      C1796   1.407       .  A
C1795      C1800   1.405       .  A
C1795      H1805   1.076       .  S
C1796      C1801   1.497       .  S
C1796      C1797   1.412       .  A
C1797      C1798   1.402       .  A
C1797      N1802   1.429       .  S
C1798      C1799   1.404       .  A
C1798      H1803   1.070       .  S
C1799      C1800   1.414       .  A
C1800      N1804   1.428       .  S
C1801      C1806   1.414       .  A
C1801      C1810   1.408       .  A
N1802      O1817   1.262       .  A
N1802      O1818   1.261       .  A
N1804      O1815   1.261       .  A
N1804      O1816   1.262       .  A
C1806      C1807   1.402       .  A
C1806      N1811   1.430       .  S
C1807      C1808   1.405       .  A
C1807      H1812   1.081       .  S
C1808      C1809   1.410       .  A
C1809      C1810   1.406       .  A
C1809      N1813   1.427       .  S
C1810      H1814   1.078       .  S
N1811      O1821   1.262       .  A
N1811      O1822   1.261       .  A
N1813      O1819   1.262       .  A
N1813      O1820   1.262       .  A
C1823      C1824   1.398       .  A
C1823      C1828   1.399       .  A
C1823      H1833   1.080       .  S
C1824      C1829   1.484       .  S
C1824      C1825   1.409       .  A
C1825      C1826   1.407       .  A
C1825      N1830   1.425       .  S
C1826      C1827   1.401       .  A
C1826      H1831   1.063       .  S
C1827      C1828   1.410       .  A
C1828      N1832   1.424       .  S
C1829      C1834   1.410       .  A
C1829      C1838   1.406       .  A
N1830      O1845   1.262       .  A
N1830      O1846   1.258       .  A
N1832      O1843   1.262       .  A
N1832      O1844   1.262       .  A
C1834      C1835   1.395       .  A
C1834      N1839   1.428       .  S
C1835      C1836   1.399       .  A
C1835      H1840   1.081       .  S
C1836      C1837   1.413       .  A
C1837      C1838   1.409       .  A
C1837      N1841   1.429       .  S
C1838      H1842   1.081       .  S
N1839      O1849   1.262       .  A
N1839      O1850   1.260       .  A
N1841      O1847   1.262       .  A
N1841      O1848   1.262       .  A
C1851      C1852   1.399       .  A
C1851      C1856   1.392       .  A
C1851      H1861   1.076       .  S
C1852      C1857   1.496       .  S
C1852      C1853   1.420       .  A
C1853      C1854   1.408       .  A
C1853      N1858   1.428       .  S
C1854      C1855   1.403       .  A
C1854      H1859   1.079       .  S
C1855      C1856   1.419       .  A
C1856      N1860   1.429       .  S
C1857      C1862   1.422       .  A
C1857      C1866   1.401       .  A
N1858      O1873   1.262       .  A
N1858      O1874   1.262       .  A
N1860      O1871   1.260       .  A
N1860      O1872   1.260       .  A
C1862      C1863   1.406       .  A
C1862      N1867   1.430       .  S
C1863      C1864   1.400       .  A
C1863      H1868   1.080       .  S
C1864      C1865   1.412       .  A
C1865      C1866   1.396       .  A
C1865      N1869   1.430       .  S
C1866      H1870   1.074       .  S
N1867      O1877   1.261       .  A
N1867      O1878   1.262       .  A
N1869      O1875   1.262       .  A
N1869      O1876   1.262       .  A
C1879      C1880   1.406       .  A
C1879      C1884   1.407       .  A
C1879      H1889   1.035       .  S
C1880      C1885   1.497       .  S
C1880      C1881   1.409       .  A
C1881      C1882   1.409       .  A
C1881      N1886   1.427       .  S
C1882      C1883   1.406       .  A
C1882      H1887   1.076       .  S
C1883      C1884   1.409       .  A
C1884      N1888   1.430       .  S
C1885      C1890   1.409       .  A
C1885      C1894   1.396       .  A
N1886      O1901   1.261       .  A
N1886      O1902   1.262       .  A
N1888      O1899   1.262       .  A
N1888      O1900   1.262       .  A
C1890      C1891   1.422       .  A
C1890      N1895   1.428       .  S
C1891      C1892   1.417       .  A
C1891      H1896   1.084       .  S
C1892      C1893   1.424       .  A
C1893      C1894   1.401       .  A
C1893      N1897   1.429       .  S
C1894      H1898   1.083       .  S
N1895      O1905   1.261       .  A
N1895      O1906   1.262       .  A
N1897      O1903   1.262       .  A
N1897      O1904   1.262       .  A
C1907      C1908   1.402       .  A
C1907      C1912   1.399       .  A
C1907      H1917   1.080       .  S
C1908      C1913   1.489       .  S
C1908      C1909   1.415       .  A
C1909      C1910   1.397       .  A
C1909      N1914   1.428       .  S
C1910      C1911   1.400       .  A
C1910      H1915   1.074       .  S
C1911      C1912   1.413       .  A
C1912      N1916   1.430       .  S
C1913      C1918   1.409       .  A
C1913      C1922   1.409       .  A
N1914      O1929   1.262       .  A
N1914      O1930   1.262       .  A
N1916      O1927   1.262       .  A
N1916      O1928   1.262       .  A
C1918      C1919   1.393       .  A
C1918      N1923   1.431       .  S
C1919      C1920   1.408       .  A
C1919      H1924   1.080       .  S
C1920      C1921   1.417       .  A
C1921      C1922   1.411       .  A
C1921      N1925   1.429       .  S
C1922      H1926   1.081       .  S
N1923      O1933   1.262       .  A
N1923      O1934   1.262       .  A
N1925      O1931   1.262       .  A
N1925      O1932   1.262       .  A
C1935      C1936   1.403       .  A
C1935      C1940   1.404       .  A
C1935      H1945   1.080       .  S
C1936      C1941   1.485       .  S
C1936      C1937   1.406       .  A
C1937      C1938   1.401       .  A
C1937      N1942   1.428       .  S
C1938      C1939   1.409       .  A
C1938      H1943   1.080       .  S
C1939      C1940   1.414       .  A
C1940      N1944   1.428       .  S
C1941      C1946   1.410       .  A
C1941      C1950   1.402       .  A
N1942      O1957   1.262       .  A
N1942      O1958   1.261       .  A
N1944      O1955   1.261       .  A
N1944      O1956   1.262       .  A
C1946      C1947   1.398       .  A
C1946      N1951   1.429       .  S
C1947      C1948   1.401       .  A
C1947      H1952   1.081       .  S
C1948      C1949   1.414       .  A
C1949      C1950   1.409       .  A
C1949      N1953   1.428       .  S
C1950      H1954   1.080       .  S
N1951      O1961   1.262       .  A
N1951      O1962   1.261       .  A
N1953      O1959   1.262       .  A
N1953      O1960   1.262       .  A
C1963      C1964   1.399       .  A
C1963      C1968   1.400       .  A
C1963      H1973   1.081       .  S
C1964      C1969   1.493       .  S
C1964      C1965   1.416       .  A
C1965      C1966   1.410       .  A
C1965      N1970   1.429       .  S
C1966      C1967   1.406       .  A
C1966      H1971   1.080       .  S
C1967      C1968   1.419       .  A
C1968      N1972   1.427       .  S
C1969      C1974   1.411       .  A
C1969      C1978   1.405       .  A
N1970      O1985   1.262       .  A
N1970      O1986   1.262       .  A
N1972      O1983   1.262       .  A
N1972      O1984   1.261       .  A
C1974      C1975   1.407       .  A
C1974      N1979   1.428       .  S
C1975      C1976   1.407       .  A
C1975      H1980   1.083       .  S
C1976      C1977   1.412       .  A
C1977      C1978   1.403       .  A
C1977      N1981   1.429       .  S
C1978      H1982   1.081       .  S
N1979      O1989   1.261       .  A
N1979      O1990   1.262       .  A
N1981      O1987   1.262       .  A
N1981      O1988   1.262       .  A
C1991      C1992   1.399       .  A
C1991      C1996   1.405       .  A
C1991      H2001   1.080       .  S
C1992      C1997   1.493       .  S
C1992      C1993   1.415       .  A
C1993      C1994   1.405       .  A
C1993      N1998   1.428       .  S
C1994      C1995   1.403       .  A
C1994      H1999   1.080       .  S
C1995      C1996   1.422       .  A
C1996      N2000   1.429       .  S
C1997      C2002   1.415       .  A
C1997      C2006   1.399       .  A
N1998      O2013   1.262       .  A
N1998      O2014   1.262       .  A
N2000      O2011   1.261       .  A
N2000      O2012   1.262       .  A
C2002      C2003   1.406       .  A
C2002      N2007   1.424       .  S
C2003      C2004   1.401       .  A
C2003      H2008   1.080       .  S
C2004      C2005   1.416       .  A
C2005      C2006   1.401       .  A
C2005      N2009   1.429       .  S
C2006      H2010   1.080       .  S
N2007      O2017   1.262       .  A
N2007      O2018   1.262       .  A
N2009      O2015   1.262       .  A
N2009      O2016   1.262       .  A
C2019      C2020   1.407       .  A
C2019      C2024   1.412       .  A
C2019      H2029   1.080       .  S
C2020      C2025   1.492       .  S
C2020      C2021   1.407       .  A
C2021      C2022   1.401       .  A
C2021      N2026   1.429       .  S
C2022      C2023   1.409       .  A
C2022      H2027   1.080       .  S
C2023      C2024   1.415       .  A
C2024      N2028   1.428       .  S
C2025      C2030   1.413       .  A
C2025      C2034   1.406       .  A
N2026      O2041   1.262       .  A
N2026      O2042   1.261       .  A
N2028      O2039   1.262       .  A
N2028      O2040   1.262       .  A
C2030      C2031   1.404       .  A
C2030      N2035   1.426       .  S
C2031      C2032   1.398       .  A
C2031      H2036   1.083       .  S
C2032      C2033   1.411       .  A
C2033      C2034   1.404       .  A
C2033      N2037   1.431       .  S
C2034      H2038   1.085       .  S
N2035      O2045   1.262       .  A
N2035      O2046   1.262       .  A
N2037      O2043   1.261       .  A
N2037      O2044   1.262       .  A
C2047      C2048   1.415       .  A
C2047      C2052   1.411       .  A
C2047      H2057   1.075       .  S
C2048      C2053   1.510       .  S
C2048      C2049   1.419       .  A
C2049      C2050   1.394       .  A
C2049      N2054   1.427       .  S
C2050      C2051   1.400       .  A
C2050      H2055   1.080       .  S
C2051      C2052   1.406       .  A
C2052      N2056   1.427       .  S
C2053      C2058   1.419       .  A
C2053      C2062   1.413       .  A
N2054      O2069   1.259       .  A
N2054      O2070   1.261       .  A
N2056      O2067   1.262       .  A
N2056      O2068   1.262       .  A
C2058      C2059   1.400       .  A
C2058      N2063   1.430       .  S
C2059      C2060   1.402       .  A
C2059      H2064   1.073       .  S
C2060      C2061   1.408       .  A
C2061      C2062   1.408       .  A
C2061      N2065   1.428       .  S
C2062      H2066   1.074       .  S
N2063      O2073   1.262       .  A
N2063      O2074   1.262       .  A
N2065      O2071   1.261       .  A
N2065      O2072   1.262       .  A
C2075      C2076   1.399       .  A
C2075      C2080   1.399       .  A
C2075      H2085   1.081       .  S
C2076      C2081   1.483       .  S
C2076      C2077   1.406       .  A
C2077      C2078   1.403       .  A
C2077      N2082   1.428       .  S
C2078      C2079   1.412       .  A
C2078      H2083   1.080       .  S
C2079      C2080   1.411       .  A
C2080      N2084   1.422       .  S
C2081      C2086   1.410       .  A
C2081      C2090   1.400       .  A
N2082      O2097   1.262       .  A
N2082      O2098   1.261       .  A
N2084      O2095   1.260       .  A
N2084      O2096   1.261       .  A
C2086      C2087   1.400       .  A
C2086      N2091   1.425       .  S
C2087      C2088   1.400       .  A
C2087      H2092   1.081       .  S
C2088      C2089   1.412       .  A
C2089      C2090   1.404       .  A
C2089      N2093   1.426       .  S
C2090      H2094   1.081       .  S
N2091      O2101   1.262       .  A
N2091      O2102   1.261       .  A
N2093      O2099   1.262       .  A
N2093      O2100   1.261       .  A
C2103      C2104   1.401       .  A
C2103      C2108   1.406       .  A
C2103      H2113   1.079       .  S
C2104      C2109   1.491       .  S
C2104      C2105   1.420       .  A
C2105      C2106   1.395       .  A
C2105      N2110   1.426       .  S
C2106      C2107   1.390       .  A
C2106      H2111   1.080       .  S
C2107      C2108   1.414       .  A
C2108      N2112   1.427       .  S
C2109      C2114   1.418       .  A
C2109      C2118   1.396       .  A
N2110      O2125   1.258       .  A
N2110      O2126   1.259       .  A
N2112      O2123   1.262       .  A
N2112      O2124   1.262       .  A
C2114      C2115   1.407       .  A
C2114      N2119   1.429       .  S
C2115      C2116   1.405       .  A
C2115      H2120   1.080       .  S
C2116      C2117   1.419       .  A
C2117      C2118   1.395       .  A
C2117      N2121   1.428       .  S
C2118      H2122   1.080       .  S
N2119      O2129   1.262       .  A
N2119      O2130   1.262       .  A
N2121      O2127   1.262       .  A
N2121      O2128   1.262       .  A
C2131      C2132   1.405       .  A
C2131      C2136   1.409       .  A
C2131      H2141   1.078       .  S
C2132      C2137   1.498       .  S
C2132      C2133   1.412       .  A
C2133      C2134   1.405       .  A
C2133      N2138   1.428       .  S
C2134      C2135   1.409       .  A
C2134      H2139   1.080       .  S
C2135      C2136   1.407       .  A
C2136      N2140   1.418       .  S
C2137      C2142   1.415       .  A
C2137      C2146   1.403       .  A
N2138      O2153   1.261       .  A
N2138      O2154   1.262       .  A
N2140      O2151   1.261       .  A
N2140      O2152   1.258       .  A
C2142      C2143   1.413       .  A
C2142      N2147   1.429       .  S
C2143      C2144   1.410       .  A
C2143      H2148   1.080       .  S
C2144      C2145   1.414       .  A
C2145      C2146   1.401       .  A
C2145      N2149   1.428       .  S
C2146      H2150   1.077       .  S
N2147      O2157   1.262       .  A
N2147      O2158   1.262       .  A
N2149      O2155   1.262       .  A
N2149      O2156   1.262       .  A
C2159      C2160   1.403       .  A
C2159      C2164   1.403       .  A
C2159      H2169   1.081       .  S
C2160      C2165   1.480       .  S
C2160      C2161   1.407       .  A
C2161      C2162   1.395       .  A
C2161      N2166   1.429       .  S
C2162      C2163   1.407       .  A
C2162      H2167   1.081       .  S
C2163      C2164   1.414       .  A
C2164      N2168   1.427       .  S
C2165      C2170   1.412       .  A
C2165      C2174   1.407       .  A
N2166      O2181   1.260       .  A
N2166      O2182   1.261       .  A
N2168      O2179   1.262       .  A
N2168      O2180   1.262       .  A
C2170      C2171   1.393       .  A
C2170      N2175   1.430       .  S
C2171      C2172   1.398       .  A
C2171      H2176   1.081       .  S
C2172      C2173   1.406       .  A
C2173      C2174   1.404       .  A
C2173      N2177   1.428       .  S
C2174      H2178   1.080       .  S
N2175      O2185   1.262       .  A
N2175      O2186   1.262       .  A
N2177      O2183   1.262       .  A
N2177      O2184   1.262       .  A
C2187      C2188   1.402       .  A
C2187      C2192   1.407       .  A
C2187      H2197   1.082       .  S
C2188      C2193   1.482       .  S
C2188      C2189   1.407       .  A
C2189      C2190   1.397       .  A
C2189      N2194   1.432       .  S
C2190      C2191   1.412       .  A
C2190      H2195   1.084       .  S
C2191      C2192   1.417       .  A
C2192      N2196   1.427       .  S
C2193      C2198   1.404       .  A
C2193      C2202   1.406       .  A
N2194      O2209   1.262       .  A
N2194      O2210   1.262       .  A
N2196      O2207   1.262       .  A
N2196      O2208   1.262       .  A
C2198      C2199   1.395       .  A
C2198      N2203   1.429       .  S
C2199      C2200   1.408       .  A
C2199      H2204   1.081       .  S
C2200      C2201   1.413       .  A
C2201      C2202   1.404       .  A
C2201      N2205   1.427       .  S
C2202      H2206   1.078       .  S
N2203      O2213   1.261       .  A
N2203      O2214   1.262       .  A
N2205      O2211   1.262       .  A
N2205      O2212   1.261       .  A
C2215      C2216   1.409       .  A
C2215      C2220   1.406       .  A
C2215      H2225   1.081       .  S
C2216      C2221   1.494       .  S
C2216      C2217   1.414       .  A
C2217      C2218   1.398       .  A
C2217      N2222   1.431       .  S
C2218      C2219   1.408       .  A
C2218      H2223   1.080       .  S
C2219      C2220   1.415       .  A
C2220      N2224   1.428       .  S
C2221      C2226   1.417       .  A
C2221      C2230   1.404       .  A
N2222      O2237   1.262       .  A
N2222      O2238   1.262       .  A
N2224      O2235   1.262       .  A
N2224      O2236   1.262       .  A
C2226      C2227   1.405       .  A
C2226      N2231   1.428       .  S
C2227      C2228   1.400       .  A
C2227      H2232   1.080       .  S
C2228      C2229   1.409       .  A
C2229      C2230   1.393       .  A
C2229      N2233   1.431       .  S
C2230      H2234   1.080       .  S
N2231      O2241   1.262       .  A
N2231      O2242   1.262       .  A
N2233      O2239   1.262       .  A
N2233      O2240   1.262       .  A
C2243      C2244   1.400       .  A
C2243      C2248   1.395       .  A
C2243      H2253   1.081       .  S
C2244      C2249   1.492       .  S
C2244      C2245   1.413       .  A
C2245      C2246   1.414       .  A
C2245      N2250   1.427       .  S
C2246      C2247   1.408       .  A
C2246      H2251   1.080       .  S
C2247      C2248   1.416       .  A
C2248      N2252   1.430       .  S
C2249      C2254   1.411       .  A
C2249      C2258   1.406       .  A
N2250      O2265   1.262       .  A
N2250      O2266   1.262       .  A
N2252      O2263   1.262       .  A
N2252      O2264   1.262       .  A
C2254      C2255   1.401       .  A
C2254      N2259   1.428       .  S
C2255      C2256   1.402       .  A
C2255      H2260   1.079       .  S
C2256      C2257   1.408       .  A
C2257      C2258   1.409       .  A
C2257      N2261   1.429       .  S
C2258      H2262   1.064       .  S
N2259      O2269   1.262       .  A
N2259      O2270   1.262       .  A
N2261      O2267   1.262       .  A
N2261      O2268   1.262       .  A
C2271      C2272   1.402       .  A
C2271      C2276   1.400       .  A
C2271      H2281   1.077       .  S
C2272      C2277   1.506       .  S
C2272      C2273   1.423       .  A
C2273      C2274   1.411       .  A
C2273      N2278   1.428       .  S
C2274      C2275   1.401       .  A
C2274      H2279   1.079       .  S
C2275      C2276   1.421       .  A
C2276      N2280   1.430       .  S
C2277      C2282   1.424       .  A
C2277      C2286   1.405       .  A
N2278      O2293   1.262       .  A
N2278      O2294   1.261       .  A
N2280      O2291   1.261       .  A
N2280      O2292   1.262       .  A
C2282      C2283   1.408       .  A
C2282      N2287   1.428       .  S
C2283      C2284   1.398       .  A
C2283      H2288   1.080       .  S
C2284      C2285   1.409       .  A
C2285      C2286   1.400       .  A
C2285      N2289   1.428       .  S
C2286      H2290   1.076       .  S
N2287      O2297   1.262       .  A
N2287      O2298   1.262       .  A
N2289      O2295   1.262       .  A
N2289      O2296   1.261       .  A
C2299      C2300   1.399       .  A
C2299      C2304   1.393       .  A
C2299      H2309   1.081       .  S
C2300      C2305   1.473       .  S
C2300      C2301   1.407       .  A
C2301      C2302   1.403       .  A
C2301      N2306   1.426       .  S
C2302      C2303   1.402       .  A
C2302      H2307   1.079       .  S
C2303      C2304   1.412       .  A
C2304      N2308   1.431       .  S
C2305      C2310   1.406       .  A
C2305      C2314   1.395       .  A
N2306      O2321   1.261       .  A
N2306      O2322   1.261       .  A
N2308      O2319   1.262       .  A
N2308      O2320   1.262       .  A
C2310      C2311   1.401       .  A
C2310      N2315   1.428       .  S
C2311      C2312   1.404       .  A
C2311      H2316   1.085       .  S
C2312      C2313   1.419       .  A
C2313      C2314   1.399       .  A
C2313      N2317   1.429       .  S
C2314      H2318   1.083       .  S
N2315      O2325   1.262       .  A
N2315      O2326   1.260       .  A
N2317      O2323   1.262       .  A
N2317      O2324   1.261       .  A
C2327      C2328   1.407       .  A
C2327      C2332   1.408       .  A
C2327      H2337   1.084       .  S
C2328      C2333   1.489       .  S
C2328      C2329   1.413       .  A
C2329      C2330   1.398       .  A
C2329      N2334   1.427       .  S
C2330      C2331   1.395       .  A
C2330      H2335   1.083       .  S
C2331      C2332   1.407       .  A
C2332      N2336   1.428       .  S
C2333      C2338   1.410       .  A
C2333      C2342   1.397       .  A
N2334      O2349   1.262       .  A
N2334      O2350   1.261       .  A
N2336      O2347   1.260       .  A
N2336      O2348   1.261       .  A
C2338      C2339   1.408       .  A
C2338      N2343   1.425       .  S
C2339      C2340   1.404       .  A
C2339      H2344   1.078       .  S
C2340      C2341   1.420       .  A
C2341      C2342   1.403       .  A
C2341      N2345   1.430       .  S
C2342      H2346   1.080       .  S
N2343      O2353   1.261       .  A
N2343      O2354   1.262       .  A
N2345      O2351   1.262       .  A
N2345      O2352   1.262       .  A
C2355      C2356   1.404       .  A
C2355      C2360   1.393       .  A
C2355      H2365   1.077       .  S
C2356      C2361   1.491       .  S
C2356      C2357   1.415       .  A
C2357      C2358   1.404       .  A
C2357      N2362   1.428       .  S
C2358      C2359   1.403       .  A
C2358      H2363   1.080       .  S
C2359      C2360   1.410       .  A
C2360      N2364   1.430       .  S
C2361      C2366   1.414       .  A
C2361      C2370   1.407       .  A
N2362      O2377   1.262       .  A
N2362      O2378   1.261       .  A
N2364      O2375   1.262       .  A
N2364      O2376   1.262       .  A
C2366      C2367   1.395       .  A
C2366      N2371   1.429       .  S
C2367      C2368   1.400       .  A
C2367      H2372   1.077       .  S
C2368      C2369   1.412       .  A
C2369      C2370   1.405       .  A
C2369      N2373   1.428       .  S
C2370      H2374   1.077       .  S
N2371      O2381   1.261       .  A
N2371      O2382   1.261       .  A
N2373      O2379   1.262       .  A
N2373      O2380   1.261       .  A
