geometry optimzed in LAMMPS
_audit_creation_date              2020-11-30 
_audit_creation_method            'lammps2cif' 
_symmetry_space_group_name_H-M    'P1' 
_symmetry_Int_Tables_number       1 
_symmetry_cell_setting            triclinic 
loop_ 
_symmetry_equiv_pos_as_xyz 
  x,y,z 
_cell_length_a                    34.90444761255628 
_cell_length_b                    34.8213061006501 
_cell_length_c                    34.82645564594478 
_cell_angle_alpha                 90.42046413940909 
_cell_angle_beta                  90.20781495583839 
_cell_angle_gamma                 90.10455450413654 
loop_ 
_atom_site_label 
_atom_site_type_symbol 
_atom_site_fract_x 
_atom_site_fract_y 
_atom_site_fract_z 
_atom_site_charge 
O1          O  0.27626520  0.55979234  0.00239567    -0.72420
O2          O  0.27600650  0.44382529  0.99982622    -0.73400
O3          O  0.27884827  0.50315120  0.94270164    -0.62020
O4          O  0.27621019  0.50128712  0.05760600    -0.70430
O5          O  0.21274183  0.50115029  0.05561904    -0.69980
O6          O  0.21537927  0.50358308  0.94110286    -0.61240
O7          O  0.21245483  0.44479009  0.99660728    -0.73750
O8          O  0.21268570  0.55906982  0.99982197    -0.72530
Cu9        Cu  0.27916324  0.50189409  0.00050473     1.04560
Cu10       Cu  0.21119166  0.50202102  0.99815532     1.04330
C11         C  0.24413343  0.57751477  0.00228404     0.93780
C12         C  0.24377032  0.42619252  0.99859884     0.92920
C13         C  0.24754246  0.50462516  0.92368852     0.85060
C14         C  0.24406174  0.50169900  0.07483442     0.91330
C15         C  0.24213513  0.50017775  0.75547240    -0.01960
O16         O  0.77926799  0.44428082  0.00488627    -0.72420
O17         O  0.78388150  0.55836413  0.99951455    -0.73400
O18         O  0.78041897  0.50464907  0.05919427    -0.62020
O19         O  0.78065131  0.49807311  0.94490307    -0.70430
O20         O  0.71739072  0.50260833  0.94340635    -0.69980
O21         O  0.71691632  0.50380496  0.05897292    -0.61240
O22         O  0.72034731  0.56083782  0.00204062    -0.73750
O23         O  0.71575407  0.44555094  0.00078410    -0.72530
Cu24       Cu  0.78319790  0.50124281  0.00208121     1.04560
Cu25       Cu  0.71528087  0.50330674  0.00123460     1.04330
C26         C  0.74717149  0.42685094  0.00296959     0.93780
C27         C  0.75296467  0.57765323  0.00128415     0.92920
C28         C  0.74864751  0.50539083  0.07730725     0.85060
C29         C  0.74928659  0.49917485  0.92586444     0.91330
C30         C  0.75914419  0.50129561  0.75718442    -0.01960
O31         O  0.05947891  0.49892491  0.77740415    -0.72420
O32         O  0.94352320  0.50375298  0.77932160    -0.73400
O33         O  0.00004117  0.44460798  0.78269914    -0.62020
O34         O  0.00310024  0.55846954  0.77813412    -0.70430
O35         O  0.99930219  0.55629127  0.71463646    -0.69980
O36         O  0.99992567  0.44027539  0.71897986    -0.61240
O37         O  0.94329755  0.49778060  0.71576972    -0.73750
O38         O  0.05697989  0.49850489  0.71367387    -0.72530
Cu39       Cu  0.00164842  0.50155458  0.78165510     1.04560
Cu40       Cu  0.99994837  0.49813687  0.71353355     1.04330
C41         C  0.07627557  0.49775820  0.74473724     0.93780
C42         C  0.92537121  0.50142431  0.74729808     0.92920
C43         C  0.99971546  0.42447148  0.75207879     0.85060
C44         C  0.00041517  0.57566110  0.74611368     0.91330
O45         O  0.94118848  0.50071023  0.28751039    -0.72420
O46         O  0.05457679  0.50450390  0.28696150    -0.73400
O47         O  0.99614228  0.56005458  0.28162386    -0.62020
O48         O  0.99961598  0.44427312  0.28919532    -0.70430
O49         O  0.99817285  0.44004441  0.22568512    -0.69980
O50         O  0.99734156  0.55390294  0.21805740    -0.61240
O51         O  0.05520175  0.49730719  0.22346445    -0.73750
O52         O  0.93989528  0.49561187  0.22388739    -0.72530
Cu53       Cu  0.99788332  0.50256338  0.28856999     1.04560
Cu54       Cu  0.99759928  0.49668525  0.22051336     1.04330
C55         C  0.92255594  0.49719210  0.25621911     0.93780
C56         C  0.07279956  0.50111206  0.25557666     0.92920
C57         C  0.99672432  0.57491855  0.24812945     0.85060
C58         C  0.99925989  0.42389108  0.25833705     0.91330
C59         C  0.75678383  0.49937914  0.24529399    -0.01960
C60         C  0.23826657  0.50111367  0.24364645    -0.01960
O61         O  0.50035253  0.78896705  0.94127115    -0.72420
O62         O  0.49767114  0.78734311  0.05683828    -0.73400
O63         O  0.55654465  0.78911485  0.99981633    -0.62020
O64         O  0.44113801  0.78868578  0.99731329    -0.70430
O65         O  0.44196101  0.72506789  0.99869030    -0.69980
O66         O  0.55599928  0.72554402  0.99584177    -0.61240
O67         O  0.50114807  0.72365531  0.05496584    -0.73750
O68         O  0.49720495  0.72521866  0.94080370    -0.72530
Cu69       Cu  0.49888146  0.79088178  0.99902519     1.04560
Cu70       Cu  0.49904883  0.72274532  0.99770297     1.04330
C71         C  0.49898155  0.75699484  0.92300522     0.93780
C72         C  0.49968049  0.75502007  0.07396954     0.92920
C73         C  0.57444562  0.75728403  0.99672871     0.85060
C74         C  0.42334474  0.75658315  0.99683686     0.91330
C75         C  0.50281119  0.75589253  0.75496277    -0.01960
O76         O  0.50235814  0.05666228  0.71494189    -0.72420
O77         O  0.50298701  0.94195521  0.71415631    -0.73400
O78         O  0.44474280  0.99943965  0.71423442    -0.62020
O79         O  0.55952455  0.99995127  0.71635112    -0.70430
O80         O  0.55817779  0.99856279  0.78015914    -0.69980
O81         O  0.44421004  0.99839093  0.77806253    -0.61240
O82         O  0.50084053  0.94156364  0.77794792    -0.73750
O83         O  0.50063927  0.05669225  0.77869562    -0.72530
Cu84       Cu  0.50240372  0.99946218  0.71264983     1.04560
Cu85       Cu  0.50099731  0.99887530  0.78095758     1.04330
C86         C  0.50131246  0.07479680  0.74684807     0.93780
C87         C  0.50201656  0.92373484  0.74579524     0.92920
C88         C  0.42652111  0.99881662  0.74602144     0.85060
C89         C  0.57678648  0.99910413  0.74873348     0.91330
O90         O  0.50144989  0.28450978  0.94298336    -0.72420
O91         O  0.49688016  0.28213531  0.05766025    -0.73400
O92         O  0.55658634  0.28263602  0.00317286    -0.62020
O93         O  0.44197953  0.28224641  0.99743005    -0.70430
O94         O  0.44125344  0.21865808  0.99560142    -0.69980
O95         O  0.55627804  0.21889960  0.99988724    -0.61240
O96         O  0.49724071  0.21849960  0.05561724    -0.73750
O97         O  0.50145078  0.22071655  0.94082196    -0.72530
Cu98       Cu  0.49915719  0.28507956  0.00039456     1.04560
Cu99       Cu  0.49895976  0.21693532  0.99800442     1.04330
C100        C  0.50252447  0.25313356  0.92389463     0.93780
C101        C  0.49701847  0.24995360  0.07489200     0.92920
C102        C  0.57449138  0.25065081  0.00205118     0.85060
C103        C  0.42337417  0.25062542  0.99516651     0.91330
C104        C  0.50207658  0.24284927  0.75474851    -0.01960
O105        O  0.50120643  0.94267656  0.21533164    -0.72420
O106        O  0.49775715  0.05788160  0.22105559    -0.73400
O107        O  0.55700938  0.00159419  0.21626211    -0.62020
O108        O  0.44219931  0.99823683  0.21831401    -0.70430
O109        O  0.44423317  0.99702731  0.28188863    -0.69980
O110        O  0.55885336  0.99939482  0.28001212    -0.61240
O111        O  0.50087835  0.05504678  0.28476374    -0.73750
O112        O  0.50158599  0.94112479  0.27916194    -0.72530
Cu113      Cu  0.49954929  0.00025926  0.21542113     1.04560
Cu114      Cu  0.50148318  0.99805124  0.28362774     1.04330
C115        C  0.50117791  0.92394903  0.24674701     0.93780
C116        C  0.49884699  0.07439954  0.25398033     0.92920
C117        C  0.57594778  0.00097175  0.24766534     0.85060
C118        C  0.42500733  0.99668972  0.25055312     0.91330
C119        C  0.50148323  0.75642977  0.24214302    -0.01960
C120        C  0.49950922  0.24149800  0.24396657    -0.01960
O121        O  0.21370857  0.99582926  0.44434599    -0.72420
O122        O  0.21942747  0.00291632  0.55854553    -0.73400
O123        O  0.21726016  0.05663932  0.49815787    -0.62020
O124        O  0.21812799  0.94163710  0.50512315    -0.70430
O125        O  0.28124113  0.94162500  0.49844592    -0.69980
O126        O  0.28088973  0.05639183  0.50075453    -0.61240
O127        O  0.28287356  0.99798284  0.55669290    -0.73750
O128        O  0.27708982  0.00079058  0.44142310    -0.72530
Cu129      Cu  0.21490018  0.99915165  0.50158215     1.04560
Cu130      Cu  0.28280292  0.99913742  0.49908938     1.04330
C131        C  0.24433012  0.99905798  0.42482872     0.93780
C132        C  0.25168793  0.00071254  0.57563677     0.92920
C133        C  0.24925273  0.07455866  0.49921221     0.85060
C134        C  0.24990760  0.92341487  0.50340873     0.91330
C135        C  0.24408271  0.75534143  0.50146798    -0.01960
O136        O  0.77402058  0.99954457  0.44234390    -0.72420
O137        O  0.77506830  0.00566214  0.55635040    -0.73400
O138        O  0.77386898  0.94446664  0.50261587    -0.62020
O139        O  0.77261610  0.05962070  0.49604182    -0.70430
O140        O  0.70908254  0.05849894  0.49913784    -0.69980
O141        O  0.71029520  0.94373056  0.49970532    -0.61240
O142        O  0.71156898  0.00123424  0.55740608    -0.73750
O143        O  0.71034739  0.99997605  0.44154063    -0.72530
Cu144      Cu  0.77609863  0.00230515  0.49933885     1.04560
Cu145      Cu  0.70803379  0.00089835  0.49949195     1.04330
C146        C  0.74244700  0.99960706  0.42388918     0.93780
C147        C  0.74380645  0.00356191  0.57494962     0.92920
C148        C  0.74210165  0.92599178  0.50195021     0.85060
C149        C  0.74044625  0.07714324  0.49645342     0.91330
C150        C  0.75934963  0.75968059  0.49850372    -0.01960
O151        O  0.00517125  0.77839613  0.43990311    -0.72420
O152        O  0.00252947  0.78605953  0.55399107    -0.73400
O153        O  0.06121620  0.77906932  0.49745843    -0.62020
O154        O  0.94590979  0.78214843  0.49486079    -0.70430
O155        O  0.94460076  0.71881194  0.50059197    -0.69980
O156        O  0.05867211  0.71538422  0.50006242    -0.61240
O157        O  0.00312920  0.72245152  0.55825939    -0.73750
O158        O  0.00094539  0.71481027  0.44248612    -0.72530
Cu159      Cu  0.00370774  0.78364723  0.49659066     1.04560
Cu160      Cu  0.00169488  0.71561891  0.50059659     1.04330
C161        C  0.00340208  0.74584706  0.42311382     0.93780
C162        C  0.00345981  0.75572349  0.57420009     0.92920
C163        C  0.07795366  0.74638322  0.49810455     0.85060
C164        C  0.92703712  0.75060907  0.49665931     0.91330
O165        O  0.05817037  0.21462732  0.50330558    -0.72420
O166        O  0.94339062  0.21591043  0.50800923    -0.73400
O167        O  0.99842780  0.20922499  0.44828016    -0.62020
O168        O  0.00370512  0.21894622  0.56200934    -0.70430
O169        O  0.00188074  0.28260324  0.55812838    -0.69980
O170        O  0.00036314  0.27280113  0.44303942    -0.61240
O171        O  0.94364870  0.27920437  0.50175113    -0.73750
O172        O  0.05800050  0.27829999  0.49910450    -0.72530
Cu173      Cu  0.00081327  0.21247592  0.50548504     1.04560
Cu174      Cu  0.00092711  0.28050975  0.50028091     1.04330
C175        C  0.07606859  0.24656261  0.50076071     0.93780
C176        C  0.92534089  0.24782567  0.50626417     0.92920
C177        C  0.99980836  0.23930305  0.42773996     0.85060
C178        C  0.00334715  0.25191325  0.57805576     0.91330
C179        C  0.75777145  0.24321129  0.49988551    -0.01960
C180        C  0.24382067  0.24246066  0.49713761    -0.01960
C181        C  0.00376701  0.25434469  0.26264134    -0.01960
C182        C  0.74361732  0.00302226  0.25558635    -0.01960
C183        C  0.99945134  0.74203054  0.25361589    -0.01960
C184        C  0.25684919  0.00112179  0.25885301    -0.01960
C185        C  0.99905949  0.74450534  0.73995360    -0.01960
C186        C  0.25904854  0.99810750  0.74354615    -0.01960
C187        C  0.99804752  0.25749338  0.74716285    -0.01960
C188        C  0.74393850  0.99792601  0.74277860    -0.01960
C189        C  0.25489851  0.25940021  0.99753475    -0.01960
C190        C  0.25593506  0.74395605  0.00090774    -0.01960
C191        C  0.74246725  0.25851852  0.00348186    -0.01960
C192        C  0.74154415  0.74393707  0.99940742    -0.01960
C193        C  0.82161099  0.18483476  0.13396339     0.03650
C194        C  0.85249414  0.20316068  0.15243903    -0.12500
C195        C  0.86788904  0.18811179  0.18638674     0.01150
C196        C  0.85184227  0.15490471  0.20255493    -0.11020
C197        C  0.82077633  0.13619231  0.18453828     0.03640
C198        C  0.80692681  0.15074658  0.14958531    -0.10440
H199        H  0.86410166  0.22958599  0.14103179     0.09240
H200        H  0.86326796  0.14407077  0.22932973     0.06770
H201        H  0.78407740  0.13574444  0.13459337     0.06620
C202        C  0.14156628  0.81130466  0.19309952     0.03650
C203        C  0.15842640  0.84479260  0.20820350    -0.12500
C204        C  0.19096328  0.86067501  0.19082015     0.01150
C205        C  0.20658469  0.84301687  0.15816271    -0.11020
C206        C  0.19005592  0.80945385  0.14262548     0.03640
C207        C  0.15756653  0.79362968  0.16050518    -0.10440
H208        H  0.14604483  0.85866402  0.23319720     0.09240
H209        H  0.23140540  0.85575444  0.14459914     0.06770
H210        H  0.14461348  0.76761907  0.14911529     0.06620
C211        C  0.13921581  0.18757635  0.80864643     0.03650
C212        C  0.15468690  0.15334259  0.79389644    -0.12500
C213        C  0.18574193  0.13530827  0.81234351     0.01150
C214        C  0.20078765  0.15230257  0.84605113    -0.11020
C215        C  0.18655830  0.18724851  0.86004929     0.03640
C216        C  0.15573126  0.20487835  0.84127478    -0.10440
H217        H  0.14268224  0.14132067  0.76774133     0.09240
H218        H  0.22385557  0.13857221  0.86161847     0.06770
H219        H  0.14397676  0.23141220  0.85260864     0.06620
C220        C  0.86115619  0.81317253  0.18682374     0.03650
C221        C  0.84765071  0.84902617  0.19982517    -0.12500
C222        C  0.81361286  0.86496262  0.18518179     0.01150
C223        C  0.79493115  0.84626321  0.15449160    -0.11020
C224        C  0.80893714  0.81134333  0.13973021     0.03640
C225        C  0.84129257  0.79455359  0.15683294    -0.10440
H226        H  0.86379987  0.86490924  0.22125198     0.09240
H227        H  0.76953800  0.85895870  0.14199609     0.06770
H228        H  0.85081436  0.76668797  0.14674420     0.06620
C229        C  0.18607156  0.86251312  0.81414677     0.03650
C230        C  0.15293650  0.84542889  0.79831531    -0.12500
C231        C  0.13748040  0.81134689  0.81332583     0.01150
C232        C  0.15504996  0.79501913  0.84581270    -0.11020
C233        C  0.18737367  0.81240541  0.86280635     0.03640
C234        C  0.20282988  0.84582001  0.84676275    -0.10440
H235        H  0.13910873  0.85861990  0.77393462     0.09240
H236        H  0.14307960  0.76943604  0.85862624     0.06770
H237        H  0.22847489  0.85822448  0.85937615     0.06620
C238        C  0.86427168  0.18315048  0.81882435     0.03650
C239        C  0.84915406  0.14857867  0.80398731    -0.12500
C240        C  0.81671731  0.13129490  0.82031234     0.01150
C241        C  0.80073579  0.14784002  0.85363332    -0.11020
C242        C  0.81552789  0.18198282  0.86958377     0.03640
C243        C  0.84730250  0.19927655  0.85179166    -0.10440
H244        H  0.86227998  0.13520791  0.77926232     0.09240
H245        H  0.77612956  0.13450007  0.86672350     0.06770
H246        H  0.85870741  0.22574177  0.86353023     0.06620
C247        C  0.86088236  0.80801976  0.81317940     0.03650
C248        C  0.84675211  0.84218837  0.79735932    -0.12500
C249        C  0.81381882  0.86013544  0.81249313     0.01150
C250        C  0.79609955  0.84375933  0.84471070    -0.11020
C251        C  0.81044007  0.81008121  0.86118493     0.03640
C252        C  0.84264537  0.79206961  0.84515764    -0.10440
H253        H  0.86201137  0.85494506  0.77362900     0.09240
H254        H  0.77055669  0.85665767  0.85674218     0.06770
H255        H  0.85372860  0.76597409  0.85779139     0.06620
C256        C  0.14560125  0.19368774  0.19251439     0.03650
C257        C  0.16351942  0.16151840  0.20881228    -0.12500
C258        C  0.19453519  0.14329377  0.19072412     0.01150
C259        C  0.20881659  0.15880855  0.15636380    -0.11020
C260        C  0.19278764  0.19228518  0.14039978     0.03640
C261        C  0.16065980  0.20890101  0.15838485    -0.10440
H262        H  0.15330273  0.15053280  0.23592250     0.09240
H263        H  0.23179531  0.14420544  0.14147370     0.06770
H264        H  0.14714493  0.23359197  0.14553077     0.06620
C265        C  0.31515480  0.31447645  0.63457933     0.03650
C266        C  0.29886722  0.34717987  0.65190548    -0.12500
C267        C  0.31415279  0.36314832  0.68583785     0.01150
C268        C  0.34663756  0.34601830  0.70248462    -0.11020
C269        C  0.36406051  0.31377330  0.68524499     0.03640
C270        C  0.34824621  0.29858785  0.65109699    -0.10440
H271        H  0.27390330  0.36025312  0.63905681     0.09240
H272        H  0.35838816  0.35786527  0.72885903     0.06770
H273        H  0.36157130  0.27402322  0.63748189     0.06620
C274        C  0.69400921  0.30617984  0.35695663     0.03650
C275        C  0.70998725  0.33944823  0.34101410    -0.12500
C276        C  0.69289353  0.35700227  0.30904660     0.01150
C277        C  0.65907870  0.34123500  0.29357606    -0.11020
C278        C  0.64351809  0.30696304  0.30800472     0.03640
C279        C  0.66165626  0.28948286  0.33950872    -0.10440
H280        H  0.73549499  0.35193539  0.35383177     0.09240
H281        H  0.64444083  0.35640518  0.27084573     0.06770
H282        H  0.65076989  0.26265263  0.35061262     0.06620
C283        C  0.31070727  0.69145402  0.35966727     0.03650
C284        C  0.34476819  0.70660008  0.34431866    -0.12500
C285        C  0.36392427  0.68773624  0.31394349     0.01150
C286        C  0.34790332  0.65340772  0.29908735    -0.11020
C287        C  0.31312084  0.63897428  0.31293823     0.03640
C288        C  0.29472891  0.65824016  0.34307012    -0.10440
H289        H  0.35621046  0.73298383  0.35623850     0.09240
H290        H  0.36251111  0.63734648  0.27683128     0.06770
H291        H  0.26756233  0.64749711  0.35349802     0.06620
C292        C  0.31437833  0.31384491  0.36120213     0.03650
C293        C  0.34868079  0.30044114  0.34486922    -0.12500
C294        C  0.36276130  0.31645288  0.31087217     0.01150
C295        C  0.34380745  0.34764966  0.29434888    -0.11020
C296        C  0.31010015  0.36238744  0.31080134     0.03640
C297        C  0.29498217  0.34427806  0.34347540    -0.10440
H298        H  0.36435812  0.27727038  0.35826168     0.09240
H299        H  0.35596486  0.36083628  0.26907667     0.06770
H300        H  0.26752709  0.35309994  0.35478872     0.06620
C301        C  0.36672905  0.68305658  0.68403804     0.03650
C302        C  0.34881900  0.65219458  0.70262795    -0.12500
C303        C  0.31337232  0.63799605  0.68947878     0.01150
C304        C  0.29524287  0.65547299  0.65798628    -0.11020
C305        C  0.31351430  0.68542172  0.63833007     0.03640
C306        C  0.34950446  0.69823684  0.65092509    -0.10440
H307        H  0.36189230  0.63966864  0.72785836     0.09240
H308        H  0.26780120  0.64477429  0.64786978     0.06770
H309        H  0.36378596  0.72073186  0.63507762     0.06620
C310        C  0.68933045  0.36258679  0.68912077     0.03650
C311        C  0.65618001  0.34525802  0.70376019    -0.12500
C312        C  0.64098544  0.31216056  0.68620307     0.01150
C313        C  0.65928611  0.29618099  0.65404791    -0.11020
C314        C  0.69229704  0.31346506  0.63895878     0.03640
C315        C  0.70713818  0.34679467  0.65652995    -0.10440
H316        H  0.64228481  0.35745950  0.72880996     0.09240
H317        H  0.64762647  0.27052866  0.64055700     0.06770
H318        H  0.73257858  0.36029963  0.64499179     0.06620
C319        C  0.69087405  0.68743597  0.36114985     0.03650
C320        C  0.65597769  0.70221964  0.34752970    -0.12500
C321        C  0.63779340  0.68631315  0.31468704     0.01150
C322        C  0.65543029  0.65500667  0.29612227    -0.11020
C323        C  0.68951032  0.63929407  0.31035244     0.03640
C324        C  0.70731010  0.65568726  0.34265790    -0.10440
H325        H  0.64297487  0.72577502  0.36314404     0.09240
H326        H  0.64333167  0.64296948  0.27003375     0.06770
H327        H  0.73375930  0.64357411  0.35355103     0.06620
C328        C  0.69344614  0.69118159  0.63800284     0.03650
C329        C  0.71021757  0.65834699  0.65432845    -0.12500
C330        C  0.69304140  0.63977981  0.68563012     0.01150
C331        C  0.65833173  0.65420119  0.70009790    -0.11020
C332        C  0.64128929  0.68736586  0.68468715     0.03640
C333        C  0.65935736  0.70574211  0.65383087    -0.10440
H334        H  0.73669401  0.64724442  0.64264342     0.09240
H335        H  0.64438614  0.63919323  0.72332933     0.06770
H336        H  0.64745046  0.73208316  0.64262124     0.06620
C337        C  0.75461404  0.74472151  0.92684894    -0.20780
C338        C  0.75908129  0.76288703  0.96309640    -0.08820
C339        C  0.77636943  0.79990791  0.96346790     0.30030
C340        C  0.79299770  0.81480901  0.93025920    -0.20780
C341        C  0.79191366  0.79420224  0.89565069    -0.08840
C342        C  0.77180237  0.75944735  0.89387845     0.30040
F343        F  0.76829996  0.74003511  0.86010381    -0.19360
H344        H  0.73886544  0.71807897  0.92418410     0.18400
H345        H  0.80677489  0.84270337  0.93152775     0.18410
F346        F  0.77603118  0.82286537  0.99509505    -0.19350
C347        C  0.73484106  0.77424590  0.06804480    -0.20780
C348        C  0.75800597  0.76160207  0.03717132    -0.08820
C349        C  0.79822055  0.76226959  0.04290825     0.30030
C350        C  0.81422868  0.77834721  0.07608302    -0.20780
C351        C  0.79094865  0.79301212  0.10543327    -0.08840
C352        C  0.75098777  0.79004620  0.10144010     0.30040
F353        F  0.72742735  0.80117634  0.13036665    -0.19360
H354        H  0.70411165  0.77095842  0.06748352     0.18400
H355        H  0.84514335  0.77986629  0.07849642     0.18410
F356        F  0.82233681  0.74826321  0.01573785    -0.19350
C357        C  0.76236847  0.19900702  0.96422535    -0.20780
C358        C  0.76091311  0.23961394  0.96685047    -0.08820
C359        C  0.77980374  0.26024864  0.93718591     0.30030
C360        C  0.79548522  0.24120563  0.90560382    -0.20780
C361        C  0.79666606  0.20101931  0.90331641    -0.08840
C362        C  0.78037677  0.18002790  0.93360694     0.30040
F363        F  0.78302138  0.14118416  0.93471598    -0.19360
H364        H  0.74995156  0.18172028  0.98673786     0.18400
H365        H  0.80745723  0.25857129  0.88295451     0.18410
F366        F  0.78550830  0.29869249  0.93824084    -0.19350
C367        C  0.76210919  0.20357903  0.09937291    -0.20780
C368        C  0.80215522  0.20270700  0.10047205    -0.08820
C369        C  0.82250266  0.21890047  0.06987048     0.30030
C370        C  0.80287251  0.23667480  0.03965765    -0.20780
C371        C  0.76227530  0.23900454  0.03875081    -0.08840
C372        C  0.74233394  0.22016718  0.06892417     0.30040
F373        F  0.70381259  0.21596585  0.06974772    -0.19360
H374        H  0.74562463  0.19102385  0.12241822     0.18400
H375        H  0.81957858  0.24918305  0.01676128     0.18410
F376        F  0.86129667  0.21678898  0.06859202    -0.19350
C377        C  0.22000992  0.79896827  0.96569158    -0.20780
C378        C  0.23813349  0.76261660  0.96439370    -0.08820
C379        C  0.24257933  0.74531729  0.92759554     0.30030
C380        C  0.22528033  0.76112967  0.89502105    -0.20780
C381        C  0.20521299  0.79576307  0.89749344    -0.08840
C382        C  0.20356725  0.81512175  0.93285783     0.30040
F383        F  0.18575139  0.84964257  0.93569359    -0.19360
H384        H  0.21879983  0.81558523  0.99198217     0.18400
H385        H  0.22797870  0.74651342  0.86759494     0.18410
F386        F  0.26259095  0.71226853  0.92306049    -0.19350
C387        C  0.19995346  0.76451495  0.04333565    -0.20780
C388        C  0.24014592  0.76169255  0.03889814    -0.08820
C389        C  0.26302622  0.77067431  0.07159040     0.30030
C390        C  0.24646664  0.78613592  0.10483249    -0.20780
C391        C  0.20674613  0.79151661  0.10755710    -0.08840
C392        C  0.18352034  0.77993381  0.07657461     0.30040
F393        F  0.14494473  0.78459974  0.07779368    -0.19360
H394        H  0.18102155  0.75553082  0.02025948     0.18400
H395        H  0.26481055  0.79315682  0.12905485     0.18410
F396        F  0.30096958  0.76259325  0.07305378    -0.19350
C397        C  0.21346935  0.20624711  0.96375994    -0.20780
C398        C  0.23778456  0.23881699  0.96130924    -0.08820
C399        C  0.24746528  0.25137211  0.92382006     0.30030
C400        C  0.23028852  0.23493205  0.89119970    -0.20780
C401        C  0.20396870  0.20485374  0.89468295    -0.08840
C402        C  0.19614988  0.19017389  0.93110163     0.30040
F403        F  0.17152603  0.16025366  0.93509454    -0.19360
H404        H  0.20750705  0.19251933  0.99074274     0.18400
H405        H  0.23756724  0.24573440  0.86305490     0.18410
F406        F  0.27246856  0.28070702  0.91858032    -0.19350
C407        C  0.26374709  0.22794939  0.06519901    -0.20780
C408        C  0.23950905  0.24192949  0.03580214    -0.08820
C409        C  0.19966787  0.24251903  0.04365074     0.30030
C410        C  0.18483362  0.22575256  0.07685263    -0.20780
C411        C  0.20907105  0.20964583  0.10470853    -0.08840
C412        C  0.24889838  0.21179268  0.09876971     0.30040
F413        F  0.27381701  0.19970348  0.12612367    -0.19360
H414        H  0.29449129  0.23029375  0.06336175     0.18400
H415        H  0.15405175  0.22514360  0.08044327     0.18410
F416        F  0.17468948  0.25847251  0.01843670    -0.19350
C417        C  0.78151165  0.93324472  0.73831535    -0.20780
C418        C  0.76275347  0.96153404  0.76082101    -0.08820
C419        C  0.76371431  0.95669848  0.80117338     0.30030
C420        C  0.78095380  0.92442479  0.81763359    -0.20780
C421        C  0.79749423  0.89550534  0.79467829    -0.08840
C422        C  0.79735983  0.90040661  0.75465677     0.30040
F423        F  0.81133337  0.87288272  0.73075559    -0.19360
H424        H  0.78421668  0.93563969  0.70760894     0.18400
H425        H  0.78128936  0.92216468  0.84861734     0.18410
F426        F  0.74757507  0.98315463  0.82490035    -0.19350
C427        C  0.74131171  0.06165094  0.78259219    -0.20780
C428        C  0.76302621  0.03353425  0.76271997    -0.08820
C429        C  0.80340222  0.03759849  0.76398438     0.30030
C430        C  0.82065882  0.06861684  0.78335094    -0.20780
C431        C  0.79842284  0.09720275  0.80133512    -0.08840
C432        C  0.75836436  0.09348551  0.79996889     0.30040
F433        F  0.73505703  0.12123508  0.81429603    -0.19360
H434        H  0.71063095  0.05996431  0.78525146     0.18400
H435        H  0.85162419  0.07009929  0.78426641     0.18410
F436        F  0.82635032  0.01135723  0.74656888    -0.19350
C437        C  0.92423870  0.22359727  0.82200237    -0.20780
C438        C  0.89743993  0.20271319  0.79989139    -0.08820
C439        C  0.90282088  0.20097860  0.75979328     0.30030
C440        C  0.93513597  0.21743696  0.74298540    -0.20780
C441        C  0.96183426  0.23891316  0.76492808    -0.08840
C442        C  0.95519534  0.24225302  0.80487570     0.30040
F443        F  0.98011637  0.26176818  0.82784376    -0.19360
H444        H  0.92186660  0.22510481  0.85293673     0.18400
H445        H  0.93874887  0.21285745  0.71253568     0.18410
F446        F  0.87649099  0.18428036  0.73623262    -0.19350
C447        C  0.06883237  0.18668443  0.79873006    -0.20780
C448        C  0.10418336  0.20389229  0.79142537    -0.08820
C449        C  0.10567192  0.23582156  0.76738499     0.30030
C450        C  0.07181904  0.25136896  0.75248906    -0.20780
C451        C  0.03514462  0.23707029  0.76289189    -0.08840
C452        C  0.03485869  0.20222663  0.78426000     0.30040
F453        F  0.00267403  0.18116481  0.78971717    -0.19360
H454        H  0.06755516  0.16073497  0.81567246     0.18400
H455        H  0.07407921  0.27571245  0.73344088     0.18410
F456        F  0.13985381  0.25188926  0.75820798    -0.19350
C457        C  0.21989618  0.93427443  0.73960194    -0.20780
C458        C  0.23905902  0.96256570  0.76191040    -0.08820
C459        C  0.23764585  0.95839707  0.80236907     0.30030
C460        C  0.21999904  0.92643435  0.81906009    -0.20780
C461        C  0.20346112  0.89729200  0.79623311    -0.08840
C462        C  0.20399666  0.90163010  0.75613212     0.30040
F463        F  0.19041204  0.87370108  0.73230518    -0.19360
H464        H  0.21709282  0.93629844  0.70888031     0.18400
H465        H  0.21944738  0.92451689  0.85006465     0.18410
F466        F  0.25436490  0.98479371  0.82592735    -0.19350
C467        C  0.24344335  0.09474911  0.79928142    -0.20780
C468        C  0.20373297  0.09987102  0.79596899    -0.08820
C469        C  0.18216382  0.07076069  0.77768816     0.30030
C470        C  0.20041070  0.03873502  0.76147204    -0.20780
C471        C  0.24067584  0.03421844  0.76306383    -0.08840
C472        C  0.26148634  0.06207663  0.78481650     0.30040
F473        F  0.29885791  0.05783367  0.79450535    -0.19360
H474        H  0.26109330  0.11610501  0.81358855     0.18400
H475        H  0.18294307  0.01724047  0.74708659     0.18410
F476        F  0.14335538  0.07247658  0.77626606    -0.19350
C477        C  0.96376678  0.77803340  0.79698316    -0.20780
C478        C  0.96220070  0.75977680  0.76040999    -0.08820
C479        C  0.92513853  0.75299714  0.74480577     0.30030
C480        C  0.89241077  0.76864472  0.76208493    -0.20780
C481        C  0.89520627  0.78954790  0.79645362    -0.08840
C482        C  0.93097264  0.79324442  0.81433707     0.30040
F483        F  0.93430544  0.81220251  0.84839056    -0.19360
H484        H  0.99029566  0.78070717  0.81282874     0.18400
H485        H  0.86472848  0.76457609  0.74846889     0.18410
F486        F  0.92040051  0.73255254  0.71188652    -0.19350
C487        C  0.06712039  0.73759531  0.77164356    -0.20780
C488        C  0.03618718  0.76082685  0.75944690    -0.08820
C489        C  0.04118779  0.80113239  0.76263874     0.30030
C490        C  0.07324508  0.81692315  0.78102204    -0.20780
C491        C  0.10282681  0.79352283  0.79499754    -0.08840
C492        C  0.09966589  0.75355776  0.78940718     0.30040
F493        F  0.12877729  0.72985450  0.79950955    -0.19360
H494        H  0.06731740  0.70702250  0.76640060     0.18400
H495        H  0.07471156  0.84782041  0.78441014     0.18410
F496        F  0.01430145  0.82554599  0.74876658    -0.19350
C497        C  0.23353851  0.89391095  0.23789524    -0.20780
C498        C  0.20857060  0.89600901  0.20656420    -0.08820
C499        C  0.20123143  0.93172684  0.18992596     0.30030
C500        C  0.21740396  0.96519449  0.20557183    -0.20780
C501        C  0.24045486  0.96411519  0.23914288    -0.08840
C502        C  0.24989262  0.92721604  0.25357880     0.30040
F503        F  0.27401817  0.92323431  0.28390528    -0.19360
H504        H  0.24033031  0.86630879  0.25033261     0.18400
H505        H  0.21166503  0.99170704  0.19079895     0.18410
F506        F  0.17809832  0.93425853  0.15863182    -0.19350
C507        C  0.26564548  0.06787109  0.22552772    -0.20780
C508        C  0.24141723  0.03872310  0.24006022    -0.08820
C509        C  0.20154161  0.04631398  0.24002712     0.30030
C510        C  0.18676114  0.07963512  0.22341588    -0.20780
C511        C  0.21103234  0.10753275  0.20755663    -0.08840
C512        C  0.25078994  0.10142190  0.20927661     0.30040
F513        F  0.27558557  0.12866467  0.19683300    -0.19360
H514        H  0.29640140  0.06600314  0.22776050     0.18400
H515        H  0.15598486  0.08348756  0.22287197     0.18410
F516        F  0.17655049  0.02100052  0.25570178    -0.19350
C517        C  0.93738424  0.78299711  0.25931255    -0.20780
C518        C  0.96289633  0.76103984  0.23663072    -0.08820
C519        C  0.95399008  0.75666390  0.19711757     0.30030
C520        C  0.92150946  0.77398399  0.18126156    -0.20780
C521        C  0.89599736  0.79523404  0.20421617    -0.08840
C522        C  0.90412633  0.79890234  0.24371432     0.30040
F523        F  0.87944866  0.81692033  0.26785921    -0.19360
H524        H  0.94260911  0.78820756  0.28948366     0.18400
H525        H  0.91671548  0.77109130  0.15065225     0.18410
F526        F  0.97772398  0.73684145  0.17340360    -0.19350
C527        C  0.07319751  0.75038582  0.25113774    -0.20780
C528        C  0.03659626  0.76280879  0.23823272    -0.08820
C529        C  0.03645621  0.79583623  0.21408806     0.30030
C530        C  0.07066484  0.81111549  0.19981655    -0.20780
C531        C  0.10609194  0.79572575  0.21015181    -0.08840
C532        C  0.10727410  0.76591529  0.23678777     0.30040
F533        F  0.14140085  0.75161712  0.24874690    -0.19360
H534        H  0.07530174  0.72733102  0.27175402     0.18400
H535        H  0.06949114  0.83546660  0.18065274     0.18410
F536        F  0.00414635  0.81538015  0.20521137    -0.19350
C537        C  0.78066166  0.92920428  0.17996757    -0.20780
C538        C  0.79705639  0.90041376  0.20279156    -0.08820
C539        C  0.79677485  0.90533337  0.24285248     0.30030
C540        C  0.78088753  0.93813549  0.25949474    -0.20780
C541        C  0.76246330  0.96656104  0.23716543    -0.08840
C542        C  0.76376626  0.96176601  0.19670146     0.30040
F543        F  0.74812488  0.98846180  0.17318506    -0.19360
H544        H  0.78098674  0.92661105  0.14896944     0.18400
H545        H  0.78360497  0.94051165  0.29025146     0.18410
F546        F  0.81086897  0.87782508  0.26642663    -0.19350
C547        C  0.82279085  0.07304741  0.21974957    -0.20780
C548        C  0.80150342  0.10253681  0.20257774    -0.08820
C549        C  0.76134430  0.09954512  0.20244090     0.30030
C550        C  0.74313639  0.06769256  0.21817090    -0.20780
C551        C  0.76386663  0.03844557  0.23710255    -0.08840
C552        C  0.80446427  0.04146183  0.23661038     0.30040
F553        F  0.82655654  0.01416536  0.25327213    -0.19360
H554        H  0.85379292  0.07428108  0.21992969     0.18400
H555        H  0.71244071  0.06679750  0.21502953     0.18410
F556        F  0.73918484  0.12798763  0.18786400    -0.19350
C557        C  0.97055130  0.21373114  0.20828503    -0.20780
C558        C  0.96760401  0.23863469  0.24063108    -0.08820
C559        C  0.93006269  0.25046349  0.25101057     0.30030
C560        C  0.89765041  0.23389705  0.23356919    -0.20780
C561        C  0.90167253  0.20652379  0.20423864    -0.08840
C562        C  0.93824822  0.19740782  0.19099254     0.30040
F563        F  0.94276048  0.17243449  0.16122102    -0.19360
H564        H  0.99763142  0.20641855  0.19546301     0.18400
H565        H  0.86935200  0.24231652  0.24308031     0.18410
F566        F  0.92463357  0.27714081  0.27907964    -0.19350
C567        C  0.08342144  0.18542336  0.22755754    -0.20780
C568        C  0.11026719  0.21004777  0.21049440    -0.08820
C569        C  0.10278089  0.24978115  0.21098206     0.30030
C570        C  0.06884323  0.26408506  0.22688809    -0.20780
C571        C  0.04129037  0.23939943  0.24344811    -0.08840
C572        C  0.05015728  0.19972021  0.24453102     0.30040
F573        F  0.02581991  0.17437190  0.26116820    -0.19360
H574        H  0.08784933  0.15466286  0.22751428     0.18400
H575        H  0.06526236  0.29484526  0.22690687     0.18410
F576        F  0.12882962  0.27525679  0.19746095    -0.19350
C577        C  0.28238187  0.31844312  0.42568499    -0.20780
C578        C  0.29813785  0.29573486  0.39620035    -0.08820
C579        C  0.29757823  0.25570181  0.40017090     0.30030
C580        C  0.28151295  0.23889635  0.43256795    -0.20780
C581        C  0.26324052  0.26110351  0.46145894    -0.08840
C582        C  0.26542048  0.30159359  0.45788097     0.30040
F583        F  0.24995748  0.32500660  0.48501668    -0.19360
H584        H  0.28305300  0.34946597  0.42375147     0.18400
H585        H  0.28374438  0.20810243  0.43408340     0.18410
F586        F  0.31141651  0.23237225  0.37208339    -0.19350
C587        C  0.24036119  0.27929566  0.56275181    -0.20780
C588        C  0.26245925  0.26147598  0.53360626    -0.08820
C589        C  0.30284548  0.26312813  0.53799428     0.30030
C590        C  0.31971586  0.28068862  0.57027009    -0.20780
C591        C  0.29714227  0.29654125  0.59975710    -0.08840
C592        C  0.25710406  0.29487439  0.59573232     0.30040
F593        F  0.23357829  0.30723617  0.62420103    -0.19360
H594        H  0.20965409  0.28161221  0.56106345     0.18400
H595        H  0.35066206  0.28194150  0.57200499     0.18410
F596        F  0.32620618  0.24752222  0.51101823    -0.19350
C597        C  0.70279480  0.26444050  0.45689955    -0.20780
C598        C  0.74285070  0.26065546  0.46169358    -0.08820
C599        C  0.76610468  0.26829742  0.42918358     0.30030
C600        C  0.75007039  0.28337406  0.39562559    -0.20780
C601        C  0.71051644  0.28941417  0.39243900    -0.08840
C602        C  0.68689571  0.27925567  0.42330853     0.30040
F603        F  0.64841552  0.28462448  0.42153280    -0.19360
H604        H  0.68361311  0.25669415  0.47995748     0.18400
H605        H  0.76859945  0.28935133  0.37149802     0.18410
F606        F  0.80379939  0.25912547  0.42814406    -0.19350
C607        C  0.74431029  0.24498451  0.57222061    -0.20780
C608        C  0.74073675  0.26319493  0.53617257    -0.08820
C609        C  0.72538624  0.30103414  0.53623004     0.30030
C610        C  0.71026112  0.31721900  0.56983188    -0.20780
C611        C  0.71067866  0.29696780  0.60436441    -0.08840
C612        C  0.72843562  0.26095863  0.60552479     0.30040
F613        F  0.73067678  0.24134859  0.63899563    -0.19360
H614        H  0.75830063  0.21737137  0.57436509     0.18400
H615        H  0.69789850  0.34571513  0.56884025     0.18410
F616        F  0.72613890  0.32352600  0.50462295    -0.19350
C617        C  0.13730556  0.26816960  0.47209991    -0.20780
C618        C  0.11800074  0.24696635  0.49996652    -0.08820
C619        C  0.13891504  0.22615583  0.52689919     0.30030
C620        C  0.17873126  0.22687685  0.52612070    -0.20780
C621        C  0.19931317  0.24753754  0.49780036    -0.08840
C622        C  0.17731384  0.26778748  0.47007438     0.30040
F623        F  0.19312402  0.28568251  0.43964072    -0.19360
H624        H  0.12118421  0.28386185  0.45070119     0.18400
H625        H  0.19393675  0.21054626  0.54768742     0.18410
F626        F  0.12083407  0.20558582  0.55443593    -0.19350
C627        C  0.97398104  0.27405956  0.63833160    -0.20780
C628        C  0.00309705  0.25398107  0.62003316    -0.08820
C629        C  0.02800187  0.23152914  0.64184931     0.30030
C630        C  0.02525841  0.23138280  0.68183168    -0.20780
C631        C  0.99778053  0.25408156  0.70179109    -0.08840
C632        C  0.96993921  0.27256195  0.67806945     0.30040
F633        F  0.93584739  0.28484962  0.69138365    -0.19360
H634        H  0.95234123  0.28861893  0.62145289     0.18400
H635        H  0.04461736  0.21228479  0.69647421     0.18410
F636        F  0.05508891  0.20958995  0.62446547    -0.19350
C637        C  0.97333161  0.22360091  0.32392012    -0.20780
C638        C  0.00521051  0.24028856  0.30518081    -0.08820
C639        C  0.03845292  0.24728290  0.32802583     0.30030
C640        C  0.03656468  0.24573089  0.36794736    -0.20780
C641        C  0.00253071  0.23540937  0.38602760    -0.08840
C642        C  0.97158931  0.22224888  0.36399970     0.30040
F643        F  0.93888870  0.21026900  0.38122424    -0.19360
H644        H  0.94870775  0.21299512  0.30845835     0.18400
H645        H  0.06128654  0.25435944  0.38487332     0.18410
F646        F  0.07138934  0.26063474  0.31238544    -0.19350
C647        C  0.86212075  0.28180579  0.50079188    -0.20780
C648        C  0.88303403  0.24842072  0.50937306    -0.08820
C649        C  0.86299266  0.21571784  0.52132355     0.30030
C650        C  0.82316992  0.21524744  0.52068600    -0.20780
C651        C  0.80183756  0.24650569  0.50609967    -0.08840
C652        C  0.82194839  0.28125773  0.50025383     0.30040
F653        F  0.80305176  0.31400675  0.49129246    -0.19360
H654        H  0.87681285  0.30815366  0.49345754     0.18400
H655        H  0.80923550  0.18953817  0.53091464     0.18410
F656        F  0.88170603  0.18390663  0.53357588    -0.19350
C657        C  0.97992620  0.78234040  0.63671274    -0.20780
C658        C  0.00572068  0.75912773  0.61628312    -0.08820
C659        C  0.03408783  0.73926830  0.63639866     0.30030
C660        C  0.03399803  0.73931161  0.67640074    -0.20780
C661        C  0.00380038  0.75664787  0.69735640    -0.08840
C662        C  0.97911068  0.78163963  0.67700149     0.30040
F663        F  0.95434941  0.80541331  0.69528450    -0.19360
H664        H  0.95942077  0.79990501  0.62142487     0.18400
H665        H  0.05516903  0.72193863  0.69096282     0.18410
F666        F  0.06119183  0.71879033  0.61734743    -0.19350
C667        C  0.02454170  0.76917515  0.31956199    -0.20780
C668        C  0.99902212  0.74458389  0.29901222    -0.08820
C669        C  0.97211480  0.72415033  0.32206457     0.30030
C670        C  0.97570927  0.72271160  0.36189765    -0.20780
C671        C  0.00316101  0.74469513  0.38095523    -0.08840
C672        C  0.02677144  0.76903695  0.35964557     0.30040
F673        F  0.05215984  0.79277083  0.37757565    -0.19360
H674        H  0.04259295  0.78969783  0.30517630     0.18400
H675        H  0.95496138  0.70641525  0.37820761     0.18410
F676        F  0.93928989  0.70926247  0.30788778    -0.19350
C677        C  0.74334088  0.75793075  0.42608162    -0.20780
C678        C  0.74215036  0.73952054  0.46215318    -0.08820
C679        C  0.72884421  0.70085627  0.46233777     0.30030
C680        C  0.71244943  0.68421654  0.42943272    -0.20780
C681        C  0.70980976  0.70480347  0.39520605    -0.08840
C682        C  0.72618429  0.74150528  0.39346040     0.30040
F683        F  0.72601429  0.76127874  0.36001462    -0.19360
H684        H  0.75648568  0.78588808  0.42326013     0.18400
H685        H  0.70158850  0.65508768  0.43071610     0.18410
F686        F  0.73254159  0.67826971  0.49369943    -0.19350
C687        C  0.76634489  0.73182302  0.56780036    -0.20780
C688        C  0.74312209  0.74201906  0.53608939    -0.08820
C689        C  0.70291369  0.73866655  0.54071566     0.30030
C690        C  0.68728705  0.72213888  0.57357560    -0.20780
C691        C  0.71082257  0.70984442  0.60380561    -0.08840
C692        C  0.75056509  0.71574674  0.60093030     0.30040
F693        F  0.77420330  0.70726954  0.63070573    -0.19360
H694        H  0.79680664  0.73713732  0.56798182     0.18400
H695        H  0.65650937  0.71847410  0.57507542     0.18410
F696        F  0.67847859  0.75043797  0.51279245    -0.19350
C697        C  0.82215688  0.72082554  0.50185594    -0.20780
C698        C  0.80347323  0.75565115  0.49338106    -0.08820
C699        C  0.82645942  0.78552992  0.47792205     0.30030
C700        C  0.86628547  0.78353259  0.47941443    -0.20780
C701        C  0.88468221  0.75090308  0.49356634    -0.08840
C702        C  0.86222090  0.71867892  0.50306056     0.30040
F703        F  0.87872693  0.68544980  0.51467558    -0.19360
H704        H  0.80572360  0.69577931  0.50989258     0.18400
H705        H  0.88279912  0.80770866  0.46912091     0.18410
F706        F  0.81094069  0.81690243  0.46104598    -0.19350
C707        C  0.71397260  0.14132277  0.51508733    -0.20780
C708        C  0.73976115  0.11924827  0.49343434    -0.08820
C709        C  0.76526256  0.13778762  0.46881507     0.30030
C710        C  0.76740130  0.17765502  0.46868926    -0.20780
C711        C  0.74640848  0.20015726  0.49526500    -0.08840
C712        C  0.71675171  0.18150819  0.51571070     0.30040
F713        F  0.68998852  0.20151535  0.53561685    -0.19360
H714        H  0.69243765  0.12741065  0.53249122     0.18400
H715        H  0.78836951  0.19084697  0.45015803     0.18410
F716        F  0.78867716  0.11733286  0.44529942    -0.19350
C717        C  0.76712131  0.86567445  0.52951579    -0.20780
C718        C  0.74210720  0.88382920  0.50413938    -0.08820
C719        C  0.71723328  0.86140777  0.48141677     0.30030
C720        C  0.72036495  0.82132891  0.48126996    -0.20780
C721        C  0.74897206  0.80288037  0.50318381    -0.08840
C722        C  0.76959935  0.82576431  0.53018921     0.30040
F723        F  0.79504670  0.80984120  0.55490287    -0.19360
H724        H  0.78522264  0.88250620  0.54860282     0.18400
H725        H  0.70081650  0.80516120  0.46325385     0.18410
F726        F  0.69122573  0.87826531  0.45790418    -0.19350
C727        C  0.72591622  0.97315348  0.63610327    -0.20780
C728        C  0.74536537  0.00229422  0.61702394    -0.08820
C729        C  0.76763550  0.02856397  0.63817806     0.30030
C730        C  0.76874245  0.02682241  0.67830831    -0.20780
C731        C  0.74873145  0.99781774  0.69827311    -0.08840
C732        C  0.72801494  0.97035061  0.67589958     0.30040
F733        F  0.70861138  0.94120518  0.69280399    -0.19360
H734        H  0.70937981  0.95208616  0.62003112     0.18400
H735        H  0.78427876  0.04923962  0.69318881     0.18410
F736        F  0.78702206  0.05697746  0.62009523    -0.19350
C737        C  0.72615188  0.97341840  0.32005962    -0.20780
C738        C  0.74725555  0.00210976  0.30035319    -0.08820
C739        C  0.76649141  0.03013960  0.32327700     0.30030
C740        C  0.76533929  0.02824440  0.36333479    -0.20780
C741        C  0.74363286  0.00015300  0.38182544    -0.08840
C742        C  0.72386600  0.97278753  0.36000220     0.30040
F743        F  0.70287433  0.94503782  0.37731303    -0.19360
H744        H  0.71056554  0.95160721  0.30405306     0.18400
H745        H  0.78035285  0.04989529  0.38013317     0.18410
F746        F  0.78477929  0.06079245  0.30822078    -0.19350
C747        C  0.27963572  0.68456080  0.42365117    -0.20780
C748        C  0.29256129  0.70869047  0.39433313    -0.08820
C749        C  0.28748074  0.74851808  0.39854506     0.30030
C750        C  0.27147357  0.76373719  0.43221509    -0.20780
C751        C  0.26120658  0.73979614  0.46322814    -0.08840
C752        C  0.26339034  0.69960970  0.45700473     0.30040
F753        F  0.25103294  0.67457451  0.48395126    -0.19360
H754        H  0.28259517  0.65369162  0.42104653     0.18400
H755        H  0.26644246  0.79430114  0.43317586     0.18410
F756        F  0.29671725  0.77271216  0.36962310    -0.19350
C757        C  0.31592395  0.70306047  0.56923425    -0.20780
C758        C  0.29596243  0.70321095  0.60400336    -0.08820
C759        C  0.26119006  0.72315730  0.60633553     0.30030
C760        C  0.24604502  0.74121238  0.57382092    -0.20780
C761        C  0.26367656  0.73757215  0.53743212    -0.08840
C762        C  0.30060840  0.72042200  0.53656652     0.30040
F763        F  0.32317605  0.72157407  0.50498009    -0.19360
H764        H  0.34383941  0.68961253  0.56744973     0.18400
H765        H  0.21939469  0.75677585  0.57676187     0.18410
F766        F  0.24232459  0.72593967  0.64025028    -0.19350
C767        C  0.17961201  0.76694144  0.46964072    -0.20780
C768        C  0.20077931  0.74550200  0.49683403    -0.08820
C769        C  0.18037929  0.71796655  0.51854744     0.30030
C770        C  0.14026155  0.71782453  0.51823701    -0.20780
C771        C  0.11987871  0.74421888  0.49586806    -0.08840
C772        C  0.13978146  0.76755282  0.47023670     0.30040
F773        F  0.12073924  0.79129238  0.44603138    -0.19360
H774        H  0.19409728  0.78636651  0.45034731     0.18400
H775        H  0.12508815  0.69774575  0.53632561     0.18410
F776        F  0.19844193  0.69066651  0.53939638    -0.19350
C777        C  0.27006528  0.17794572  0.52490583    -0.20780
C778        C  0.24924074  0.19797189  0.49644720    -0.08820
C779        C  0.22901077  0.17558696  0.46860294     0.30030
C780        C  0.22889057  0.13565305  0.47006229    -0.20780
C781        C  0.24977928  0.11658819  0.49825194    -0.08840
C782        C  0.27103932  0.13782579  0.52520997     0.30040
F783        F  0.29137336  0.11972233  0.55300275    -0.19360
H784        H  0.28503217  0.19260912  0.54782766     0.18400
H785        H  0.21269280  0.11950143  0.44878622     0.18410
F786        F  0.20852870  0.19252609  0.44017266    -0.19350
C787        C  0.23470002  0.02801691  0.67909555    -0.20780
C788        C  0.25354300  0.99810872  0.69899248    -0.08820
C789        C  0.27227713  0.96956039  0.67640446     0.30030
C790        C  0.27210888  0.97116300  0.63648736    -0.20780
C791        C  0.25264327  0.00043639  0.61762478    -0.08840
C792        C  0.23346970  0.02858740  0.63900873     0.30040
F793        F  0.21488076  0.05764354  0.62106516    -0.19360
H794        H  0.22170013  0.05198110  0.69376583     0.18400
H795        H  0.28677953  0.94904514  0.62019018     0.18410
F796        F  0.29139398  0.94011180  0.69311389    -0.19350
C797        C  0.22155612  0.97759235  0.32063406    -0.20780
C798        C  0.24510602  0.00468030  0.30186922    -0.08820
C799        C  0.26096335  0.03473880  0.32470083     0.30030
C800        C  0.26041626  0.03259203  0.36465812    -0.20780
C801        C  0.24175846  0.00226949  0.38286537    -0.08840
C802        C  0.22035914  0.97605996  0.36077576     0.30040
F803        F  0.20019204  0.94761054  0.37792408    -0.19360
H804        H  0.20522032  0.95640717  0.30474681     0.18400
H805        H  0.27543133  0.05422939  0.38145988     0.18410
F806        F  0.28132645  0.06361225  0.30853856    -0.19350
C807        C  0.28356114  0.85968031  0.49926093    -0.20780
C808        C  0.25041259  0.88108426  0.50760651    -0.08820
C809        C  0.21804731  0.86158378  0.52117371     0.30030
C810        C  0.21755015  0.82167559  0.52213798    -0.20780
C811        C  0.24830853  0.79960382  0.50742512    -0.08840
C812        C  0.28294550  0.81940124  0.50032222     0.30040
F813        F  0.31561860  0.80000414  0.49217206    -0.19360
H814        H  0.30979663  0.87403662  0.49104734     0.18400
H815        H  0.19202894  0.80818742  0.53333571     0.18410
F816        F  0.18658647  0.88089918  0.53347253    -0.19350
C817        C  0.39564472  0.28386370  0.25613852    -0.20780
C818        C  0.39748973  0.30056530  0.29266311    -0.08820
C819        C  0.43266779  0.30233097  0.31153179     0.30030
C820        C  0.46518322  0.28606812  0.29491402    -0.20780
C821        C  0.46371455  0.26472557  0.25990401    -0.08840
C822        C  0.42793335  0.26651959  0.23973367     0.30040
F823        F  0.42310862  0.25097645  0.20416704    -0.19360
H824        H  0.36874027  0.28345263  0.24051669     0.18400
H825        H  0.49098721  0.29171412  0.31049796     0.18410
F826        F  0.43583560  0.32063668  0.34597178    -0.19350
C827        C  0.56557528  0.27698500  0.23667956    -0.20780
C828        C  0.53788403  0.25911704  0.26037348    -0.08820
C829        C  0.54781566  0.25525400  0.29982932     0.30030
C830        C  0.58124018  0.27150765  0.31489476    -0.20780
C831        C  0.60774850  0.29009236  0.29119882    -0.08840
C832        C  0.59984385  0.29176180  0.25161117     0.30040
F833        F  0.62580139  0.30640187  0.22672262    -0.19360
H834        H  0.56195976  0.27924589  0.20603951     0.18400
H835        H  0.58617203  0.26940563  0.34550293     0.18410
F836        F  0.52500620  0.23532376  0.32422997    -0.19350
C837        C  0.45930596  0.74085875  0.30037841    -0.20780
C838        C  0.46559638  0.73687185  0.26045045    -0.08820
C839        C  0.43984190  0.71251399  0.23993830     0.30030
C840        C  0.40685849  0.69833950  0.25730945    -0.20780
C841        C  0.39966988  0.70409169  0.29656784    -0.08840
C842        C  0.42721471  0.72464030  0.31826590     0.30040
F843        F  0.42406502  0.72827033  0.35693386    -0.19360
H844        H  0.47945761  0.75704399  0.31785528     0.18400
H845        H  0.38698918  0.68231930  0.23943339     0.18410
F846        F  0.44659719  0.70011201  0.20360782    -0.19350
C847        C  0.59486819  0.74281930  0.30282324    -0.20780
C848        C  0.60164513  0.70333335  0.29881979    -0.08820
C849        C  0.57368116  0.68098562  0.27948964     0.30030
C850        C  0.54211406  0.69847829  0.26182382    -0.20780
C851        C  0.53672061  0.73864966  0.26323761    -0.08840
C852        C  0.56230622  0.75992042  0.28726184     0.30040
F853        F  0.55586555  0.79685698  0.29791496    -0.19360
H854        H  0.61481126  0.76111096  0.31825711     0.18400
H855        H  0.52184173  0.68052422  0.24633035     0.18410
F856        F  0.57607118  0.64211273  0.27822170    -0.19350
C857        C  0.53023234  0.17691393  0.26548405    -0.20780
C858        C  0.49658111  0.19799411  0.25558821    -0.08820
C859        C  0.46285045  0.17568979  0.24887774     0.30030
C860        C  0.46390875  0.13563056  0.24880005    -0.20780
C861        C  0.49775760  0.11622101  0.25670067    -0.08840
C862        C  0.53051099  0.13689603  0.26676772     0.30040
F863        F  0.56371568  0.11832222  0.27487644    -0.19360
H864        H  0.55789334  0.19041645  0.26866855     0.18400
H865        H  0.43808910  0.11959394  0.24196481     0.18410
F866        F  0.42857166  0.19130655  0.24075189    -0.19350
C867        C  0.63711505  0.03110304  0.26746498    -0.20780
C868        C  0.61794023  0.00252431  0.24671148    -0.08820
C869        C  0.63907113  0.97517512  0.22614365     0.30030
C870        C  0.67913984  0.97539554  0.22785552    -0.20780
C871        C  0.69930814  0.00415719  0.24870594    -0.08840
C872        C  0.67701467  0.03244969  0.26807376     0.30040
F873        F  0.69397771  0.06102159  0.28876265    -0.19360
H874        H  0.62106541  0.05257064  0.28330111     0.18400
H875        H  0.69359960  0.95196457  0.21371466     0.18410
F876        F  0.62089415  0.94692469  0.20606603    -0.19350
C877        C  0.32426007  0.98960499  0.28872821    -0.20780
C878        C  0.30129566  0.99698763  0.25596413    -0.08820
C879        C  0.32021860  0.99756306  0.22008797     0.30030
C880        C  0.36037969  0.99734786  0.21824965    -0.20780
C881        C  0.38264902  0.99458342  0.25187409    -0.08840
C882        C  0.36394466  0.98923086  0.28696652     0.30040
F883        F  0.38380885  0.98332539  0.31999351    -0.19360
H884        H  0.31203653  0.98341833  0.31641676     0.18400
H885        H  0.37400186  0.99983341  0.19049105     0.18410
F886        F  0.29990716  0.00002546  0.18688692    -0.19350
C887        C  0.53068831  0.86228718  0.22863600    -0.20780
C888        C  0.50066491  0.88207712  0.24592720    -0.08820
C889        C  0.47076384  0.86176284  0.26322114     0.30030
C890        C  0.47063923  0.82166256  0.26268096    -0.20780
C891        C  0.50137655  0.80089299  0.24631612    -0.08840
C892        C  0.53142160  0.82236263  0.22903508     0.30040
F893        F  0.56187926  0.80453235  0.21265640    -0.19360
H894        H  0.55404199  0.87784145  0.21541220     0.18400
H895        H  0.44572096  0.80756320  0.27419012     0.18410
F896        F  0.44093034  0.88080573  0.27942899    -0.19350
C897        C  0.43568393  0.23901754  0.71940528    -0.20780
C898        C  0.46538658  0.26144119  0.73621064    -0.08820
C899        C  0.46077003  0.30202518  0.73473881     0.30030
C900        C  0.42814692  0.31864390  0.71827706    -0.20780
C901        C  0.39866579  0.29578022  0.70282490    -0.08840
C902        C  0.40275496  0.25567117  0.70398869     0.30040
F903        F  0.37436885  0.23208008  0.69119573    -0.19360
H904        H  0.43686800  0.20810914  0.71803285     0.18400
H905        H  0.42609756  0.34965325  0.71750896     0.18410
F906        F  0.48767164  0.32577568  0.75030552    -0.19350
C907        C  0.53766808  0.28325582  0.70182475    -0.20780
C908        C  0.53959987  0.25902172  0.73460566    -0.08820
C909        C  0.57753414  0.24850075  0.74598190     0.30030
C910        C  0.60985959  0.26662058  0.73083244    -0.20780
C911        C  0.60636364  0.29380037  0.70196865    -0.08840
C912        C  0.57015388  0.30121133  0.68666090     0.30040
F913        F  0.56619624  0.32560093  0.65668162    -0.19360
H914        H  0.51124149  0.28831684  0.68662557     0.18400
H915        H  0.63807879  0.25826290  0.74077877     0.18410
F916        F  0.58497003  0.21766837  0.76783791    -0.19350
C917        C  0.50865199  0.21462774  0.13518948    -0.20780
C918        C  0.49806696  0.24876653  0.11735176    -0.08820
C919        C  0.49063704  0.28126183  0.14036471     0.30030
C920        C  0.49238525  0.27875229  0.18047613    -0.20780
C921        C  0.50031935  0.24353759  0.19903319    -0.08840
C922        C  0.51068480  0.21197121  0.17493452     0.30040
F923        F  0.52472847  0.17853706  0.18852128    -0.19360
H924        H  0.51644555  0.18967227  0.11818387     0.18400
H925        H  0.48666704  0.30436773  0.19730093     0.18410
F926        F  0.48115499  0.31536123  0.12431184    -0.19350
C927        C  0.63577145  0.27390783  0.02968385    -0.20780
C928        C  0.61657045  0.25044448  0.00328446    -0.08820
C929        C  0.63777256  0.22750512  0.97789508     0.30030
C930        C  0.67780786  0.22947472  0.97773194    -0.20780
C931        C  0.69800583  0.25275202  0.00451546    -0.08840
C932        C  0.67566329  0.27457654  0.03102015     0.30040
F933        F  0.69255886  0.29687525  0.05841482    -0.19360
H934        H  0.61976461  0.29143942  0.04981977     0.18400
H935        H  0.69217484  0.21299557  0.95585806     0.18410
F936        F  0.61969951  0.20444997  0.95192943    -0.19350
C937        C  0.32254382  0.28815435  0.98466596    -0.20780
C938        C  0.29942830  0.25583592  0.99325878    -0.08820
C939        C  0.31835102  0.21994985  0.99524116     0.30030
C940        C  0.35861742  0.21802759  0.99559549    -0.20780
C941        C  0.38095206  0.25152470  0.99203771    -0.08840
C942        C  0.36223933  0.28634354  0.98495124     0.30040
F943        F  0.38214758  0.31907782  0.97792652    -0.19360
H944        H  0.31038156  0.31559666  0.97720729     0.18400
H945        H  0.37225932  0.19039749  0.99933505     0.18410
F946        F  0.29795069  0.18693603  0.99866250    -0.19350
C947        C  0.47953376  0.27694906  0.86104098    -0.20780
C948        C  0.50477843  0.25418022  0.88189769    -0.08820
C949        C  0.52923593  0.22943571  0.86236988     0.30030
C950        C  0.52829957  0.22747162  0.82250525    -0.20780
C951        C  0.50377262  0.25067605  0.79966048    -0.08840
C952        C  0.47753433  0.27421713  0.82097211     0.30040
F953        F  0.44636202  0.29101188  0.80542917    -0.19360
H954        H  0.45887959  0.29467782  0.87609523     0.18400
H955        H  0.54317753  0.20329725  0.81062976     0.18410
F956        F  0.55291598  0.20555596  0.88193236    -0.19350
C957        C  0.47659832  0.13631068  0.77271695    -0.20780
C958        C  0.50032943  0.11701051  0.74683403    -0.08820
C959        C  0.52196644  0.13826290  0.72051052     0.30030
C960        C  0.52173728  0.17841230  0.72191641    -0.20780
C961        C  0.49979156  0.19839567  0.74960124    -0.08840
C962        C  0.47527663  0.17628223  0.77339488     0.30040
F963        F  0.45017383  0.19336595  0.79779431    -0.19360
H964        H  0.45846980  0.12032572  0.79212019     0.18400
H965        H  0.53906728  0.19354714  0.70126864     0.18410
F966        F  0.54436604  0.12022721  0.69421368    -0.19350
C967        C  0.63827154  0.02735125  0.72939644    -0.20780
C968        C  0.61861618  0.99928120  0.74970831    -0.08820
C969        C  0.63905006  0.97132068  0.76993066     0.30030
C970        C  0.67907062  0.97068893  0.76858894    -0.20780
C971        C  0.69967028  0.99904315  0.74828701    -0.08840
C972        C  0.67805149  0.02776610  0.72902524     0.30040
F973        F  0.69557642  0.05631748  0.70932481    -0.19360
H974        H  0.62269394  0.04928527  0.71392195     0.18400
H975        H  0.69319836  0.94713633  0.78265338     0.18410
F976        F  0.62022214  0.94345867  0.78939871    -0.19350
C977        C  0.36510878  0.96998706  0.76622341    -0.20780
C978        C  0.38464846  0.99853626  0.74616296    -0.08820
C979        C  0.36406998  0.02704178  0.72723827     0.30030
C980        C  0.32423234  0.02709229  0.72870903    -0.20780
C981        C  0.30345229  0.99806862  0.74822613    -0.08840
C982        C  0.32510788  0.96884831  0.76656526     0.30040
F983        F  0.30884255  0.93779253  0.78304433    -0.19360
H984        H  0.38101305  0.94751666  0.78055583     0.18400
H985        H  0.30916395  0.04981817  0.71392456     0.18410
F986        F  0.38251632  0.05531081  0.70798610    -0.19350
C987        C  0.43183047  0.67851862  0.71553977    -0.20780
C988        C  0.40219557  0.70093279  0.70005621    -0.08820
C989        C  0.40631826  0.74102285  0.70054529     0.30030
C990        C  0.43903663  0.75810679  0.71581920    -0.20780
C991        C  0.46777708  0.73641510  0.73451379    -0.08840
C992        C  0.46421476  0.69582289  0.73236482     0.30040
F993        F  0.49130901  0.67278369  0.74806188    -0.19360
H994        H  0.42982537  0.64748526  0.71493040     0.18400
H995        H  0.44056887  0.78882141  0.71297418     0.18410
F996        F  0.37796976  0.76431274  0.68761737    -0.19350
C997        C  0.54412685  0.73631418  0.69720273    -0.20780
C998        C  0.53964044  0.73698365  0.73759060    -0.08820
C999        C  0.56823070  0.71771107  0.75949153     0.30030
C1000       C  0.60091730  0.70276222  0.74199871    -0.20780
C1001       C  0.60571149  0.70366513  0.70210901    -0.08840
C1002       C  0.57632047  0.71985682  0.67969773     0.30040
F1003       F  0.57800830  0.71893651  0.64077746    -0.19360
H1004       H  0.52235911  0.74890055  0.67899316     0.18400
H1005       H  0.62264922  0.69008389  0.76016717     0.18410
F1006       F  0.56501519  0.71117978  0.79762449    -0.19350
C1007       C  0.53020754  0.82057100  0.72794150    -0.20780
C1008       C  0.50183482  0.80033660  0.74863647    -0.08820
C1009       C  0.47324077  0.82259893  0.76757412     0.30030
C1010       C  0.47369900  0.86248486  0.76634457    -0.20780
C1011       C  0.50164802  0.88170681  0.74543980    -0.08840
C1012       C  0.52948674  0.86065601  0.72556317     0.30040
F1013       F  0.55718571  0.87898542  0.70542382    -0.19360
H1014       H  0.55382564  0.80622018  0.71418505     0.18400
H1015       H  0.45188172  0.87849107  0.78165385     0.18410
F1016       F  0.44479372  0.80560747  0.78787133    -0.19350
C1017       C  0.53011435  0.73530224  0.13539067    -0.20780
C1018       C  0.50010755  0.75362041  0.11606308    -0.08820
C1019       C  0.47051287  0.77033783  0.13710564     0.30030
C1020       C  0.47097274  0.76876282  0.17702389    -0.20780
C1021       C  0.50146387  0.75125201  0.19759353    -0.08840
C1022       C  0.53158101  0.73481717  0.17559885     0.30040
F1023       F  0.56388337  0.72075812  0.19182452    -0.19360
H1024       H  0.55345905  0.72273463  0.11920156     0.18400
H1025       H  0.44750101  0.78211036  0.19236252     0.18410
F1026       F  0.44082507  0.78779812  0.11901437    -0.19350
C1027       C  0.47379618  0.73298399  0.86084503    -0.20780
C1028       C  0.49974752  0.75621811  0.88099003    -0.08820
C1029       C  0.52711000  0.77721747  0.86089166     0.30030
C1030       C  0.52871030  0.77449636  0.82102591    -0.20780
C1031       C  0.50197383  0.75206131  0.79958225    -0.08840
C1032       C  0.47387901  0.73156684  0.82077195     0.30040
F1033       F  0.44516530  0.71134659  0.80404167    -0.19360
H1034       H  0.45231204  0.71680973  0.87629520     0.18400
H1035       H  0.55067456  0.79079499  0.80643190     0.18410
F1036       F  0.55289281  0.79969263  0.87984176    -0.19350
C1037       C  0.35837109  0.78791180  0.00090411    -0.20780
C1038       C  0.38103311  0.75531783  0.99360571    -0.08820
C1039       C  0.36278729  0.72109143  0.98242895     0.30030
C1040       C  0.32311812  0.71848213  0.98250206    -0.20780
C1041       C  0.29992100  0.74922017  0.99542639    -0.08840
C1042       C  0.31818295  0.78521912  0.00079394     0.30040
F1043       F  0.29738066  0.81722028  0.00851057    -0.19360
H1044       H  0.37170403  0.81524618  0.00769033     0.18400
H1045       H  0.31090206  0.69151561  0.97293870     0.18410
F1046       F  0.38317314  0.68979823  0.97122486    -0.19350
C1047       C  0.63404263  0.72245245  0.98078863    -0.20780
C1048       C  0.61667136  0.75639073  0.99344592    -0.08820
C1049       C  0.64000293  0.78845163  0.00160944     0.30030
C1050       C  0.68002396  0.78493413  0.00077438    -0.20780
C1051       C  0.69755794  0.74897382  0.99407992    -0.08840
C1052       C  0.67363355  0.71900685  0.97978201     0.30040
F1053       F  0.68788003  0.68624058  0.96412028    -0.19360
H1054       H  0.61687844  0.69817856  0.97135399     0.18400
H1055       H  0.69735412  0.80984667  0.00779212     0.18410
F1056       F  0.62439034  0.82275243  0.01155796    -0.19350
C1057       C  0.25275561  0.45428911  0.29907080    -0.20780
C1058       C  0.25672409  0.46300685  0.25965810    -0.08820
C1059       C  0.27254991  0.43277983  0.23671433     0.30030
C1060       C  0.28987942  0.40084982  0.25359987    -0.20780
C1061       C  0.29077160  0.39633127  0.29353196    -0.08840
C1062       C  0.27145360  0.42351491  0.31617293     0.30040
F1063       F  0.27026820  0.42074433  0.35500011    -0.19360
H1064       H  0.23261498  0.46945500  0.31695727     0.18400
H1065       H  0.30120799  0.37859391  0.23497330     0.18410
F1066       F  0.26708829  0.43015919  0.19829230    -0.19350
C1067       C  0.29022869  0.60158604  0.25574383    -0.20780
C1068       C  0.29549460  0.60411805  0.29544531    -0.08820
C1069       C  0.28121430  0.57460295  0.31827306     0.29590
C1070       C  0.26283631  0.54299627  0.30159927    -0.20780
C1071       C  0.25864784  0.53817515  0.26126015    -0.08840
C1072       C  0.27123751  0.57021806  0.23886250     0.30040
F1073       F  0.26279898  0.57411332  0.20110005    -0.19360
H1074       H  0.29920102  0.62514474  0.23767597     0.18400
H1075       H  0.25028210  0.52390683  0.32188181     0.18410
F1076       F  0.28467334  0.57631771  0.35710749    -0.19350
C1077       C  0.72849296  0.43049847  0.23718494    -0.20780
C1078       C  0.73923459  0.46168099  0.26112179    -0.08820
C1079       C  0.73760354  0.45593054  0.30136609     0.30030
C1080       C  0.72241778  0.42220817  0.31657558    -0.20780
C1081       C  0.70962108  0.39246006  0.29243237    -0.08840
C1082       C  0.71342971  0.39668106  0.25250321     0.30040
F1083       F  0.70388988  0.36750944  0.22820294    -0.19360
H1084       H  0.73264166  0.43134713  0.20650552     0.18400
H1085       H  0.72027129  0.41958661  0.34746172     0.18410
F1086       F  0.74991922  0.48347824  0.32626107    -0.19350
C1087       C  0.68545021  0.56986541  0.29463500    -0.20780
C1088       C  0.70553705  0.60451743  0.29231691    -0.08820
C1089       C  0.74020696  0.60570144  0.27235410     0.30030
C1090       C  0.75526447  0.57210227  0.25630586    -0.20780
C1091       C  0.73751211  0.53598870  0.26196348    -0.08840
C1092       C  0.70071184  0.53605392  0.27931937     0.30040
F1093       F  0.67826057  0.50426313  0.28033614    -0.19360
H1094       H  0.65774014  0.56899833  0.30854015     0.18400
H1095       H  0.78194774  0.57406986  0.24071234     0.18410
F1096       F  0.75931197  0.63938763  0.26813797    -0.19350
C1097       C  0.13356838  0.46761923  0.24421693    -0.20780
C1098       C  0.11455254  0.50041821  0.25684441    -0.08820
C1099       C  0.13550381  0.53181466  0.27105303     0.30030
C1100       C  0.17552682  0.53146830  0.26971976    -0.20780
C1101       C  0.19536948  0.49926029  0.25487794    -0.08840
C1102       C  0.17335280  0.46654110  0.24375078     0.30040
F1103       F  0.18997755  0.43491319  0.22818767    -0.19360
H1104       H  0.11747863  0.44296531  0.23384269     0.18400
H1105       H  0.19030956  0.55748831  0.27812539     0.18410
F1106       F  0.11718845  0.56372705  0.28396976    -0.19350
C1107       C  0.02960744  0.63579280  0.23141817    -0.20780
C1108       C  0.99672000  0.61671255  0.24382905    -0.08820
C1109       C  0.96291091  0.63746132  0.24807023     0.30030
C1110       C  0.96354098  0.67736002  0.24495367    -0.20780
C1111       C  0.99839013  0.69809023  0.24182549    -0.08840
C1112       C  0.03015981  0.67593098  0.22873903     0.30040
F1113       F  0.05993807  0.69132434  0.20941742    -0.19360
H1114       H  0.05476580  0.61952107  0.22324022     0.18400
H1115       H  0.93632213  0.69202054  0.24600173     0.18410
F1116       F  0.92925342  0.61917370  0.25488334    -0.19350
C1117       C  0.00627621  0.32234858  0.29562004    -0.20780
C1118       C  0.00160908  0.29932913  0.26203643    -0.08820
C1119       C  0.99441138  0.31908852  0.22730912     0.30030
C1120       C  0.99320694  0.35929460  0.22648039    -0.20780
C1121       C  0.99995548  0.38134952  0.25984571    -0.08840
C1122       C  0.00718052  0.36229026  0.29428036     0.30040
F1123       F  0.01570894  0.38211898  0.32693738    -0.19360
H1124       H  0.00937265  0.31058365  0.32383798     0.18400
H1125       H  0.98727058  0.37317768  0.19938456     0.18410
F1126       F  0.98851667  0.29959212  0.19391621    -0.19350
C1127       C  0.86008656  0.51801280  0.28339475    -0.20780
C1128       C  0.88066678  0.49464796  0.25783704    -0.08820
C1129       C  0.86100773  0.46785311  0.23509453     0.30030
C1130       C  0.82116112  0.46708573  0.23529766    -0.20780
C1131       C  0.79989068  0.49510806  0.25575314    -0.08840
C1132       C  0.82002421  0.51807294  0.28288466     0.30040
F1133       F  0.80172894  0.54009368  0.30930855    -0.19360
H1134       H  0.87508071  0.53708388  0.30307363     0.18400
H1135       H  0.80678012  0.44696877  0.21623587     0.18410
F1136       F  0.88029693  0.44271719  0.21233762    -0.19350
C1137       C  0.98799494  0.63643241  0.71142192    -0.20780
C1138       C  0.99768545  0.61814854  0.74561801    -0.08820
C1139       C  0.00243221  0.64076136  0.77910023     0.30030
C1140       C  0.00043686  0.68091320  0.77723658    -0.20780
C1141       C  0.99564767  0.69977670  0.74183413    -0.08840
C1142       C  0.98567683  0.67624919  0.70957996     0.30040
F1143       F  0.97211549  0.69085634  0.67620212    -0.19360
H1144       H  0.98143120  0.61979348  0.68581597     0.18400
H1145       H  0.00475925  0.69750454  0.80332702     0.18410
F1146       F  0.00968394  0.62434645  0.81359112    -0.19350
C1147       C  0.02886186  0.36283122  0.77244790    -0.20780
C1148       C  0.99844120  0.38263363  0.75549441    -0.08820
C1149       C  0.96460502  0.36278941  0.74748327     0.30030
C1150       C  0.96348668  0.32299567  0.75140668    -0.20780
C1151       C  0.99709930  0.30146649  0.75834611    -0.08840
C1152       C  0.02768034  0.32273286  0.77547739     0.30040
F1153       F  0.05405241  0.30636508  0.79878038    -0.19360
H1154       H  0.05323096  0.37849115  0.78396729     0.18400
H1155       H  0.93589364  0.30916705  0.74952158     0.18410
F1156       F  0.93234970  0.38196432  0.73724195    -0.19350
C1157       C  0.70592304  0.46657059  0.71663130    -0.20780
C1158       C  0.73879795  0.46465785  0.74063011    -0.08820
C1159       C  0.75171485  0.42735944  0.75073640     0.30030
C1160       C  0.73546879  0.39441351  0.73401795    -0.20780
C1161       C  0.70525650  0.39738083  0.70774973    -0.08840
C1162       C  0.69011046  0.43359155  0.69967812     0.30040
F1163       F  0.66014658  0.43709651  0.67499597    -0.19360
H1164       H  0.69177910  0.49338718  0.71062715     0.18400
H1165       H  0.74681274  0.36644490  0.74128603     0.18410
F1166       F  0.78132298  0.42259143  0.77554837    -0.19350
C1167       C  0.74302167  0.54366479  0.69975478    -0.20780
C1168       C  0.74217659  0.53908469  0.74013442    -0.08820
C1169       C  0.72911134  0.57097416  0.76210025     0.30030
C1170       C  0.71322733  0.60311485  0.74406692    -0.20780
C1171       C  0.71128814  0.60567597  0.70388161    -0.08840
C1172       C  0.72716590  0.57578617  0.68185126     0.30040
F1173       F  0.72619201  0.57674947  0.64291242    -0.19360
H1174       H  0.75489821  0.52119001  0.68174418     0.18400
H1175       H  0.70317867  0.62672235  0.76176428     0.18410
F1176       F  0.73375014  0.57312223  0.80068139    -0.19350
C1177       C  0.82402862  0.53406593  0.76402169    -0.20780
C1178       C  0.80239529  0.50402355  0.74671951    -0.08820
C1179       C  0.82243680  0.47760985  0.72308787     0.30030
C1180       C  0.86254232  0.47715391  0.72332793    -0.20780
C1181       C  0.88336585  0.50335197  0.74601331    -0.08840
C1182       C  0.86393247  0.53293841  0.76492965     0.30040
F1183       F  0.88350402  0.56062437  0.78445560    -0.19360
H1184       H  0.80982523  0.55641344  0.78037083     0.18400
H1185       H  0.87741507  0.45574091  0.70630267     0.18410
F1186       F  0.80409216  0.45266400  0.69926319    -0.19350
C1187       C  0.71600705  0.49979067  0.14125372    -0.20780
C1188       C  0.74897544  0.50797031  0.11970860    -0.08820
C1189       C  0.78252650  0.51886129  0.13919264     0.30030
C1190       C  0.78398571  0.51804362  0.17899763    -0.20780
C1191       C  0.75285445  0.50430182  0.20100443    -0.08840
C1192       C  0.71758371  0.49897902  0.18149781     0.30040
F1193       F  0.68496811  0.49137991  0.20110764    -0.19360
H1194       H  0.68915037  0.49320731  0.12697428     0.18400
H1195       H  0.81025717  0.52794188  0.19233470     0.18410
F1196       F  0.81418681  0.53054808  0.11993237    -0.19350
C1197       C  0.71718178  0.50056052  0.86070862    -0.20780
C1198       C  0.75043385  0.49643972  0.88334686    -0.08820
C1199       C  0.78525741  0.48905746  0.86483931     0.30030
C1200       C  0.78729240  0.48885802  0.82513164    -0.20780
C1201       C  0.75525699  0.49783666  0.80173625    -0.08840
C1202       C  0.71935012  0.50025282  0.82035829     0.30040
F1203       F  0.68664642  0.50437786  0.79961331    -0.19360
H1204       H  0.68955556  0.50459749  0.87417681     0.18400
H1205       H  0.81470679  0.48102716  0.81318515     0.18410
F1206       F  0.81783770  0.48172431  0.88490869    -0.19350
C1207       C  0.73198770  0.63883860  0.03039384    -0.20780
C1208       C  0.75488144  0.61967140  0.00367770    -0.08820
C1209       C  0.77953518  0.64089935  0.98018790     0.30030
C1210       C  0.77796966  0.68104248  0.98056163    -0.20780
C1211       C  0.75109794  0.70063302  0.00378716    -0.08840
C1212       C  0.73101893  0.67877313  0.03150372     0.30040
F1213       F  0.70721783  0.69580629  0.05717653    -0.19360
H1214       H  0.71422187  0.62278359  0.05007863     0.18400
H1215       H  0.79719088  0.69634301  0.96183620     0.18410
F1216       F  0.80362997  0.62286865  0.95545509    -0.19350
C1217       C  0.76965863  0.36491374  0.02927897    -0.20780
C1218       C  0.74680213  0.38475058  0.00306785    -0.08820
C1219       C  0.72453401  0.36419061  0.97662513     0.30030
C1220       C  0.72547834  0.32421014  0.97628733    -0.20780
C1221       C  0.74767563  0.30312459  0.00318268    -0.08840
C1222       C  0.76950553  0.32481275  0.03034281     0.30040
F1223       F  0.78961402  0.30863018  0.05924170    -0.19360
H1224       H  0.78674650  0.38069042  0.05013427     0.18400
H1225       H  0.70818962  0.30927213  0.95500640     0.18410
F1226       F  0.70250251  0.38275962  0.95048848    -0.19350
C1227       C  0.26440683  0.45945280  0.69882466    -0.20780
C1228       C  0.26084799  0.46286145  0.73913137    -0.08820
C1229       C  0.27166039  0.43049679  0.76123795     0.30030
C1230       C  0.28940309  0.39872115  0.74382982    -0.20780
C1231       C  0.29564510  0.39733640  0.70401281    -0.08840
C1232       C  0.28255800  0.42811215  0.68164161     0.30040
F1233       F  0.28828902  0.42868846  0.64312113    -0.19360
H1234       H  0.25440255  0.48232275  0.68044318     0.18400
H1235       H  0.29732480  0.37451863  0.76151067     0.18410
F1236       F  0.26315228  0.42779264  0.79905839    -0.19350
C1237       C  0.29837757  0.53580891  0.72219722    -0.20780
C1238       C  0.26150822  0.53702104  0.73908809    -0.08820
C1239       C  0.24465449  0.57386710  0.74372680     0.30030
C1240       C  0.26121566  0.60644725  0.72710677    -0.20780
C1241       C  0.29619064  0.60384784  0.70774723    -0.08840
C1242       C  0.31515044  0.56847039  0.70633899     0.30040
F1243       F  0.34977356  0.56532822  0.68895859    -0.19360
H1244       H  0.31493644  0.50963997  0.72129975     0.18400
H1245       H  0.24685609  0.63389737  0.72964770     0.18410
F1246       F  0.21138107  0.57843702  0.76318163    -0.19350
C1247       C  0.13900108  0.51763738  0.71673789    -0.20780
C1248       C  0.11826392  0.49488515  0.74252802    -0.08820
C1249       C  0.13786760  0.46809544  0.76488858     0.30030
C1250       C  0.17776640  0.46700080  0.76434223    -0.20780
C1251       C  0.19918717  0.49499961  0.74428912    -0.08840
C1252       C  0.17917956  0.51744828  0.71708557     0.30040
F1253       F  0.19782296  0.53890390  0.69070743    -0.19360
H1254       H  0.12407683  0.53648051  0.69712969     0.18400
H1255       H  0.19202111  0.44701778  0.78325004     0.18410
F1256       F  0.11847735  0.44339404  0.78775150    -0.19350
C1257       C  0.27694250  0.50041443  0.13901208    -0.20780
C1258       C  0.24308132  0.50331975  0.11721789    -0.08820
C1259       C  0.20836925  0.50926186  0.13632414     0.30030
C1260       C  0.20717101  0.50976942  0.17609772    -0.20780
C1261       C  0.24027788  0.50295332  0.19885242    -0.08840
C1262       C  0.27578637  0.50110197  0.17922185     0.30040
F1263       F  0.30925164  0.49884624  0.19908622    -0.19360
H1264       H  0.30442275  0.49740798  0.12498524     0.18400
H1265       H  0.17959257  0.51624475  0.18840327     0.18410
F1266       F  0.17524033  0.51534575  0.11674160    -0.19350
C1267       C  0.26788501  0.67895907  0.03188399    -0.20780
C1268       C  0.24614416  0.70064164  0.00536918    -0.08820
C1269       C  0.21722835  0.68093070  0.98444824     0.30030
C1270       C  0.21620039  0.64073494  0.98417604    -0.20780
C1271       C  0.24302265  0.61961070  0.00539470    -0.08840
C1272       C  0.26768073  0.63898765  0.03067605     0.30040
F1273       F  0.29187495  0.61931721  0.05393512    -0.19360
H1274       H  0.28814624  0.69298892  0.05094889     0.18400
H1275       H  0.19509090  0.62608070  0.96648126     0.18410
F1276       F  0.18970278  0.69992282  0.96467266    -0.19350
C1277       C  0.26119449  0.32457869  0.03052317    -0.20780
C1278       C  0.24401638  0.30274068  0.00054795    -0.08820
C1279       C  0.22017891  0.32274590  0.97436071     0.30030
C1280       C  0.21987318  0.36298989  0.97422474    -0.20780
C1281       C  0.24232041  0.38402694  0.00039716    -0.08840
C1282       C  0.26158280  0.36460738  0.02966281     0.30040
F1283       F  0.28107932  0.38434439  0.05726242    -0.19360
H1284       H  0.27779457  0.31046449  0.05262397     0.18400
H1285       H  0.20271497  0.37779073  0.95300739     0.18410
F1286       F  0.19665671  0.30426373  0.94927600    -0.19350
C1287       C  0.28162353  0.50102978  0.86002444    -0.20780
C1288       C  0.24806441  0.50774734  0.88131728    -0.08820
C1289       C  0.21459624  0.51801170  0.86160706     0.30030
C1290       C  0.21372637  0.51767590  0.82181884    -0.20780
C1291       C  0.24551197  0.50530357  0.79983710    -0.08840
C1292       C  0.28067305  0.50088831  0.81966777     0.30040
F1293       F  0.31361509  0.49412386  0.80020834    -0.19360
H1294       H  0.30840728  0.49499132  0.87453886     0.18400
H1295       H  0.18726907  0.52675744  0.80852113     0.18410
F1296       F  0.18233424  0.52853402  0.88062885    -0.19350
loop_ 
_geom_bond_atom_site_label_1 
_geom_bond_atom_site_label_2 
_geom_bond_distance 
_geom_bond_site_symmetry_2 
_ccdc_geom_bond_type 
O1           Cu9   2.019       .  S
O1           C11   1.281       .  A
O2           Cu9   2.025   1_556  S
O2           C12   1.281       .  A
O3           Cu9   2.014   1_556  S
O3           C13   1.277       .  A
O4           Cu9   1.992       .  S
O4           C14   1.274       .  A
O5          Cu10   2.002   1_554  S
O5           C14   1.280       .  A
O6          Cu10   1.994       .  S
O6           C13   1.279       .  A
O7          Cu10   1.994       .  S
O7           C12   1.273       .  A
O8          Cu10   1.988       .  S
O8           C11   1.273   1_556  A
Cu9         Cu10   2.374   1_554  S
C11        C1271   1.470       .  S
C12        C1281   1.471   1_556  S
C13        C1288   1.481       .  S
C14        C1258   1.477       .  S
C15        C1228   1.560       .  S
C15        C1238   1.562       .  S
C15        C1251   1.557       .  S
C15        C1291   1.558       .  S
O16         Cu24   1.991       .  S
O16          C26   1.274       .  A
O17         Cu24   1.992   1_556  S
O17          C27   1.274   1_556  A
O18         Cu24   1.994       .  S
O18          C28   1.278       .  A
O19         Cu24   1.995   1_556  S
O19          C29   1.279       .  A
O20         Cu25   2.016   1_556  S
O20          C29   1.277       .  A
O21         Cu25   2.011       .  S
O21          C28   1.277       .  A
O22         Cu25   2.011       .  S
O22          C27   1.280       .  A
O23         Cu25   2.011       .  S
O23          C26   1.279       .  A
Cu24        Cu25   2.372       .  S
C26        C1218   1.466       .  S
C27        C1208   1.466       .  S
C28        C1188   1.479       .  S
C29        C1198   1.484       .  S
C30        C1158   1.564       .  S
C30        C1168   1.564       .  S
C30        C1178   1.557       .  S
C30        C1201   1.564       .  S
O31         Cu39   2.027       .  S
O31          C41   1.282       .  A
O32         Cu39   2.032   1_655  S
O32          C42   1.283       .  A
O33         Cu39   1.984       .  S
O33          C43   1.272   1_455  A
O34         Cu39   1.987       .  S
O34          C44   1.273       .  A
O35         Cu40   2.025       .  S
O35          C44   1.283   1_655  A
O36         Cu40   2.025       .  S
O36          C43   1.281       .  A
O37         Cu40   1.979       .  S
O37          C42   1.271       .  A
O38         Cu40   1.991   1_455  S
O38          C41   1.273       .  A
Cu39        Cu40   2.375   1_455  S
C41        C1248   1.471       .  S
C42        C1181   1.468       .  S
C43        C1148   1.463       .  S
C44        C1138   1.483   1_455  S
O45         Cu53   1.980       .  S
O45          C55   1.272       .  A
O46         Cu53   1.981   1_455  S
O46          C56   1.271       .  A
O47         Cu53   2.019       .  S
O47          C57   1.280       .  A
O48         Cu53   2.031       .  S
O48          C58   1.284       .  A
O49         Cu54   1.982       .  S
O49          C58   1.273       .  A
O50         Cu54   1.995       .  S
O50          C57   1.273       .  A
O51         Cu54   2.013   1_455  S
O51          C56   1.280       .  A
O52         Cu54   2.018       .  S
O52          C55   1.281       .  A
Cu53        Cu54   2.377       .  S
C55        C1128   1.466       .  S
C56        C1098   1.458       .  S
C57        C1108   1.464       .  S
C58        C1121   1.483       .  S
C59        C1078   1.553       .  S
C59        C1091   1.552       .  S
C59        C1131   1.554       .  S
C59        C1191   1.559       .  S
C60        C1058   1.581       .  S
C60        C1071   1.591       .  S
C60        C1101   1.550       .  S
C60        C1261   1.564       .  S
O61         Cu69   2.013       .  S
O61          C71   1.279       .  A
O62         Cu69   2.019   1_554  S
O62          C72   1.280       .  A
O63         Cu69   2.014       .  S
O63          C73   1.277       .  A
O64         Cu69   2.017       .  S
O64          C74   1.278       .  A
O65         Cu70   1.995       .  S
O65          C74   1.278       .  A
O66         Cu70   1.991       .  S
O66          C73   1.278       .  A
O67         Cu70   1.995   1_554  S
O67          C72   1.274       .  A
O68         Cu70   1.985       .  S
O68          C71   1.274       .  A
Cu69        Cu70   2.373       .  S
C71        C1028   1.464       .  S
C72        C1018   1.467       .  S
C73        C1048   1.479       .  S
C74        C1038   1.481       .  S
C75         C991   1.564       .  S
C75         C998   1.567       .  S
C75        C1008   1.565       .  S
C75        C1031   1.561       .  S
O76         Cu84   1.993   1_545  S
O76          C86   1.275       .  A
O77         Cu84   2.004       .  S
O77          C87   1.276       .  A
O78         Cu84   2.014       .  S
O78          C88   1.279       .  A
O79         Cu84   1.998       .  S
O79          C89   1.277       .  A
O80         Cu85   1.996       .  S
O80          C89   1.275       .  A
O81         Cu85   1.984       .  S
O81          C88   1.274       .  A
O82         Cu85   1.998       .  S
O82          C87   1.277       .  A
O83         Cu85   2.015   1_545  S
O83          C86   1.280       .  A
Cu84        Cu85   2.380       .  S
C86         C958   1.470       .  S
C87        C1011   1.463       .  S
C88         C978   1.462       .  S
C89         C968   1.460       .  S
O90         Cu98   2.001   1_556  S
O90         C100   1.275       .  A
O91         Cu98   2.000       .  S
O91         C101   1.275       .  A
O92         Cu98   2.009       .  S
O92         C102   1.279       .  A
O93         Cu98   2.000   1_556  S
O93         C103   1.279       .  A
O94         Cu99   2.017       .  S
O94         C103   1.277       .  A
O95         Cu99   2.003       .  S
O95         C102   1.276   1_556  A
O96         Cu99   2.008   1_554  S
O96         C101   1.280       .  A
O97         Cu99   1.999       .  S
O97         C100   1.278       .  A
Cu98        Cu99   2.374   1_554  S
C100        C948   1.466       .  S
C101        C918   1.480       .  S
C102        C928   1.469       .  S
C103        C941   1.485       .  S
C104        C898   1.575       .  S
C104        C908   1.592       .  S
C104        C951   1.587       .  S
C104        C961   1.559       .  S
O105       Cu113   2.006   1_565  S
O105        C115   1.278       .  A
O106       Cu113   2.016       .  S
O106        C116   1.279       .  A
O107       Cu113   2.006       .  S
O107        C117   1.276       .  A
O108       Cu113   2.006   1_565  S
O108        C118   1.276       .  A
O109       Cu114   1.999       .  S
O109        C118   1.279       .  A
O110       Cu114   2.007       .  S
O110        C117   1.278   1_565  A
O111       Cu114   1.985   1_545  S
O111        C116   1.272       .  A
O112       Cu114   1.987       .  S
O112        C115   1.274       .  A
Cu113      Cu114   2.378   1_545  S
C115        C888   1.458       .  S
C116        C861   1.459       .  S
C117        C868   1.467       .  S
C118        C881   1.481       .  S
C119        C838   1.565       .  S
C119        C851   1.562       .  S
C119        C891   1.554       .  S
C119       C1021   1.561       .  S
C120        C821   1.589       .  S
C120        C828   1.576       .  S
C120        C858   1.574       .  S
C120        C921   1.567       .  S
O121       Cu129   1.996       .  S
O121        C131   1.274       .  A
O122       Cu129   1.993   1_545  S
O122        C132   1.274       .  A
O123       Cu129   2.008   1_545  S
O123        C133   1.278       .  A
O124       Cu129   2.011       .  S
O124        C134   1.280       .  A
O125       Cu130   2.003       .  S
O125        C134   1.276       .  A
O126       Cu130   1.995   1_545  S
O126        C133   1.275       .  A
O127       Cu130   2.007       .  S
O127        C132   1.278   1_565  A
O128       Cu130   2.019   1_545  S
O128        C131   1.280   1_545  A
Cu129      Cu130   2.372       .  S
C131        C801   1.469   1_565  S
C132        C791   1.463       .  S
C133        C781   1.464       .  S
C134        C808   1.482       .  S
C135        C751   1.556       .  S
C135        C761   1.558       .  S
C135        C768   1.557       .  S
C135        C811   1.560       .  S
O136       Cu144   1.988   1_565  S
O136        C146   1.274       .  A
O137       Cu144   1.989       .  S
O137        C147   1.273       .  A
O138       Cu144   2.019   1_565  S
O138        C148   1.281       .  A
O139       Cu144   2.004       .  S
O139        C149   1.279       .  A
O140       Cu145   2.006       .  S
O140        C149   1.276       .  A
O141       Cu145   1.992   1_565  S
O141        C148   1.274       .  A
O142       Cu145   2.020       .  S
O142        C147   1.281       .  A
O143       Cu145   2.020   1_565  S
O143        C146   1.280       .  A
Cu144      Cu145   2.376       .  S
C146        C741   1.466   1_565  S
C147        C728   1.467       .  S
C148        C718   1.471       .  S
C149        C708   1.471       .  S
C150        C678   1.561       .  S
C150        C688   1.558       .  S
C150        C698   1.558       .  S
C150        C721   1.555       .  S
O151       Cu159   1.982       .  S
O151        C161   1.273       .  A
O152       Cu159   2.001       .  S
O152        C162   1.274       .  A
O153       Cu159   2.014       .  S
O153        C163   1.281       .  A
O154       Cu159   2.019   1_655  S
O154        C164   1.282       .  A
O155       Cu160   1.996   1_655  S
O155        C164   1.275       .  A
O156       Cu160   1.989       .  S
O156        C163   1.273       .  A
O157       Cu160   2.021       .  S
O157        C162   1.281       .  A
O158       Cu160   2.024       .  S
O158        C161   1.281       .  A
Cu159      Cu160   2.375       .  S
C161        C671   1.468       .  S
C162        C658   1.471       .  S
C163        C771   1.468       .  S
C164        C701   1.482       .  S
O165       Cu173   2.005       .  S
O165        C175   1.278       .  A
O166       Cu173   2.010   1_655  S
O166        C176   1.280       .  A
O167       Cu173   1.996   1_655  S
O167        C177   1.274       .  A
O168       Cu173   1.982       .  S
O168        C178   1.273       .  A
O169       Cu174   2.016       .  S
O169        C178   1.280       .  A
O170       Cu174   2.010       .  S
O170        C177   1.279   1_455  A
O171       Cu174   2.001   1_655  S
O171        C176   1.276       .  A
O172       Cu174   1.994       .  S
O172        C175   1.275       .  A
Cu173      Cu174   2.377       .  S
C175        C618   1.464       .  S
C176        C648   1.481       .  S
C177        C641   1.461   1_655  S
C178        C628   1.463       .  S
C179        C598   1.555       .  S
C179        C608   1.558       .  S
C179        C651   1.556       .  S
C179        C711   1.557       .  S
C180        C581   1.562       .  S
C180        C588   1.567       .  S
C180        C621   1.564       .  S
C180        C778   1.561       .  S
C181        C558   1.570   1_455  S
C181        C571   1.561       .  S
C181        C638   1.564       .  S
C181       C1118   1.569       .  S
C182        C541   1.565   1_545  S
C182        C551   1.564       .  S
C182        C738   1.564       .  S
C182        C871   1.565       .  S
C183        C518   1.555       .  S
C183        C528   1.581   1_655  S
C183        C668   1.583       .  S
C183       C1111   1.582       .  S
C184        C501   1.562   1_545  S
C184        C508   1.564       .  S
C184        C798   1.559       .  S
C184        C878   1.562   1_545  S
C185        C478   1.565       .  S
C185        C488   1.565   1_655  S
C185        C661   1.555   1_655  S
C185       C1141   1.564       .  S
C186        C458   1.562       .  S
C186        C471   1.565   1_565  S
C186        C788   1.563       .  S
C186        C981   1.558       .  S
C187        C441   1.552       .  S
C187        C451   1.577   1_655  S
C187        C631   1.584       .  S
C187       C1151   1.578       .  S
C188        C418   1.563       .  S
C188        C428   1.564   1_565  S
C188        C731   1.560       .  S
C188        C971   1.558       .  S
C189        C398   1.563       .  S
C189        C408   1.565   1_556  S
C189        C938   1.567       .  S
C189       C1278   1.560   1_556  S
C190        C378   1.560   1_554  S
C190        C388   1.559       .  S
C190       C1041   1.558   1_554  S
C190       C1268   1.555       .  S
C191        C358   1.572   1_554  S
C191        C371   1.567       .  S
C191        C931   1.565       .  S
C191       C1221   1.564       .  S
C192        C338   1.557       .  S
C192        C348   1.556   1_556  S
C192       C1051   1.556       .  S
C192       C1211   1.553   1_556  S
C193        C368   1.488       .  S
C193        C194   1.403       .  A
C193        C198   1.406       .  A
C194        C195   1.402       .  A
C194        H199   1.083       .  S
C195        C561   1.475       .  S
C195        C196   1.406       .  A
C196        C197   1.407       .  A
C196        H200   1.083       .  S
C197        C548   1.494       .  S
C197        C198   1.406       .  A
C198        H201   1.083       .  S
C202        C531   1.479       .  S
C202        C203   1.403       .  A
C202        C207   1.405       .  A
C203        C204   1.403       .  A
C203        H208   1.084       .  S
C204        C498   1.475       .  S
C204        C205   1.402       .  A
C205        C206   1.406       .  A
C205        H209   1.084       .  S
C206        C391   1.489       .  S
C206        C207   1.409       .  A
C207        H210   1.084       .  S
C211        C448   1.476       .  S
C211        C212   1.404       .  A
C211        C216   1.404       .  A
C212        C213   1.409       .  A
C212        H217   1.082       .  S
C213        C468   1.496       .  S
C213        C214   1.410       .  A
C214        C215   1.400       .  A
C214        H218   1.083       .  S
C215        C401   1.477       .  S
C215        C216   1.402       .  A
C216        H219   1.084       .  S
C220        C521   1.496       .  S
C220        C221   1.408       .  A
C220        C225   1.405       .  A
C221        C222   1.408       .  A
C221        H226   1.082       .  S
C222        C538   1.493       .  S
C222        C223   1.405       .  A
C223        C224   1.406       .  A
C223        H227   1.083       .  S
C224        C351   1.487       .  S
C224        C225   1.405       .  A
C225        H228   1.083       .  S
C229        C461   1.495       .  S
C229        C230   1.408       .  A
C229        C234   1.406       .  A
C230        C231   1.408       .  A
C230        H235   1.081       .  S
C231        C491   1.497       .  S
C231        C232   1.409       .  A
C232        C233   1.406       .  A
C232        H236   1.083       .  S
C233        C381   1.480       .  S
C233        C234   1.402       .  A
C234        H237   1.083       .  S
C238        C438   1.499       .  S
C238        C239   1.408       .  A
C238        C243   1.407       .  A
C239        C240   1.405       .  A
C239        H244   1.080       .  S
C240        C431   1.495       .  S
C240        C241   1.409       .  A
C241        C242   1.405       .  A
C241        H245   1.080       .  S
C242        C361   1.500       .  S
C242        C243   1.409       .  A
C243        H246   1.080       .  S
C247        C481   1.480       .  S
C247        C248   1.404       .  A
C247        C252   1.402       .  A
C248        C249   1.411       .  A
C248        H253   1.082       .  S
C249        C421   1.496       .  S
C249        C250   1.407       .  A
C250        C251   1.402       .  A
C250        H254   1.083       .  S
C251        C341   1.476       .  S
C251        C252   1.404       .  A
C252        H255   1.084       .  S
C256        C568   1.497       .  S
C256        C257   1.406       .  A
C256        C261   1.408       .  A
C257        C258   1.405       .  A
C257        H262   1.083       .  S
C258        C511   1.496       .  S
C258        C259   1.409       .  A
C259        C260   1.411       .  A
C259        H263   1.082       .  S
C260        C411   1.499       .  S
C260        C261   1.410       .  A
C261        H264   1.081       .  S
C265        C591   1.496       .  S
C265        C266   1.407       .  A
C265        C270   1.405       .  A
C266        C267   1.405       .  A
C266        H271   1.081       .  S
C267       C1231   1.493       .  S
C267        C268   1.407       .  A
C268        C269   1.409       .  A
C268        H272   1.083       .  S
C269        C901   1.493       .  S
C269        C270   1.408       .  A
C270        H273   1.082       .  S
C274        C601   1.485       .  S
C274        C275   1.404       .  A
C274        C279   1.404       .  A
C275        C276   1.406       .  A
C275        H280   1.083       .  S
C276       C1081   1.487       .  S
C276        C277   1.405       .  A
C277        C278   1.407       .  A
C277        H281   1.082       .  S
C278        C831   1.494       .  S
C278        C279   1.408       .  A
C279        H282   1.083       .  S
C283        C748   1.488       .  S
C283        C284   1.408       .  A
C283        C288   1.403       .  A
C284        C285   1.412       .  A
C284        H289   1.081       .  S
C285        C841   1.502       .  S
C285        C286   1.413       .  A
C286        C287   1.402       .  A
C286        H290   1.082       .  S
C287       C1068   1.485       .  S
C287        C288   1.400       .  A
C288        H291   1.084       .  S
C292        C578   1.490       .  S
C292        C293   1.406       .  A
C292        C297   1.404       .  A
C293        C294   1.403       .  A
C293        H298   1.083       .  S
C294        C818   1.477       .  S
C294        C295   1.399       .  A
C295        C296   1.407       .  A
C295        H299   1.083       .  S
C296       C1061   1.491       .  S
C296        C297   1.409       .  A
C297        H300   1.082       .  S
C301        C988   1.489       .  S
C301        C302   1.406       .  A
C301        C306   1.406       .  A
C302        C303   1.405       .  A
C302        H307   1.084       .  S
C303       C1241   1.480       .  S
C303        C304   1.407       .  A
C304        C305   1.405       .  A
C304        H308   1.084       .  S
C305        C758   1.482       .  S
C305        C306   1.400       .  A
C306        H309   1.083       .  S
C310       C1161   1.477       .  S
C310        C311   1.403       .  A
C310        C315   1.405       .  A
C311        C312   1.403       .  A
C311        H316   1.084       .  S
C312        C911   1.476       .  S
C312        C313   1.403       .  A
C313        C314   1.404       .  A
C313        H317   1.084       .  S
C314        C611   1.480       .  S
C314        C315   1.405       .  A
C315        H318   1.084       .  S
C319        C681   1.480       .  S
C319        C320   1.405       .  A
C319        C324   1.400       .  A
C320        C321   1.415       .  A
C320        H325   1.082       .  S
C321        C848   1.500       .  S
C321        C322   1.407       .  A
C322        C323   1.401       .  A
C322        H326   1.082       .  S
C323       C1088   1.472       .  S
C323        C324   1.401       .  A
C324        H327   1.084       .  S
C328        C691   1.491       .  S
C328        C329   1.408       .  A
C328        C333   1.407       .  A
C329        C330   1.407       .  A
C329        H334   1.082       .  S
C330       C1171   1.494       .  S
C330        C331   1.406       .  A
C331        C332   1.409       .  A
C331        H335   1.083       .  S
C332       C1001   1.495       .  S
C332        C333   1.406       .  A
C333        H336   1.083       .  S
C337        C338   1.416       .  A
C337        C342   1.398       .  A
C337        H344   1.081       .  S
C338        C339   1.422       .  A
C339        C340   1.399       .  A
C339        F346   1.356       .  S
C340        C341   1.399       .  A
C340        H345   1.084       .  S
C341        C342   1.399       .  A
C342        F343   1.357       .  S
C347        C348   1.416       .  A
C347        C352   1.399       .  A
C347        H354   1.079       .  S
C348        C349   1.417       .  A
C349        C350   1.395       .  A
C349        F356   1.357       .  S
C350        C351   1.402       .  A
C350        H355   1.083       .  S
C351        C352   1.405       .  A
C352        F353   1.357       .  S
C357        C358   1.417       .  A
C357        C362   1.402       .  A
C357        H364   1.083       .  S
C358        C359   1.426       .  A
C359        C360   1.394       .  A
C359        F366   1.353       .  S
C360        C361   1.402       .  A
C360        H365   1.082       .  S
C361        C362   1.409       .  A
C362        F363   1.357       .  S
C367        C368   1.399       .  A
C367        C372   1.393       .  A
C367        H374   1.083       .  S
C368        C369   1.404       .  A
C369        C370   1.402       .  A
C369        F376   1.357       .  S
C370        C371   1.420       .  A
C370        H375   1.083       .  S
C371        C372   1.426       .  A
C372        F373   1.353       .  S
C377        C378   1.417       .  A
C377        C382   1.400       .  A
C377        H384   1.081       .  S
C378        C379   1.421       .  A
C379        C380   1.400       .  A
C379        F386   1.356       .  S
C380        C381   1.398       .  A
C380        H385   1.083       .  S
C381        C382   1.401       .  A
C382        F383   1.358       .  S
C387        C388   1.415       .  A
C387        C392   1.398       .  A
C387        H394   1.083       .  S
C388        C389   1.421       .  A
C389        C390   1.400       .  A
C389        F396   1.355       .  S
C390        C391   1.403       .  A
C390        H395   1.083       .  S
C391        C392   1.404       .  A
C392        F393   1.357       .  S
C397        C398   1.419       .  A
C397        C402   1.399       .  A
C397        H404   1.078       .  S
C398        C399   1.422       .  A
C399        C400   1.401       .  A
C399        F406   1.356       .  S
C400        C401   1.398       .  A
C400        H405   1.083       .  S
C401        C402   1.399       .  A
C402        F403   1.358       .  S
C407        C408   1.415       .  A
C407        C412   1.402       .  A
C407        H414   1.078       .  S
C408        C409   1.418       .  A
C409        C410   1.400       .  A
C409        F416   1.358       .  S
C410        C411   1.405       .  A
C410        H415   1.082       .  S
C411        C412   1.408       .  A
C412        F413   1.357       .  S
C417        C418   1.417       .  A
C417        C422   1.395       .  A
C417        H424   1.078       .  S
C418        C419   1.417       .  A
C419        C420   1.401       .  A
C419        F426   1.358       .  S
C420        C421   1.407       .  A
C420        H425   1.083       .  S
C421        C422   1.405       .  A
C422        F423   1.357       .  S
C427        C428   1.417       .  A
C427        C432   1.391       .  A
C427        H434   1.077       .  S
C428        C429   1.417       .  A
C429        C430   1.403       .  A
C429        F436   1.357       .  S
C430        C431   1.408       .  A
C430        H435   1.082       .  S
C431        C432   1.405       .  A
C432        F433   1.358       .  S
C437        C438   1.407       .  A
C437        C442   1.398       .  A
C437        H444   1.082       .  S
C438        C439   1.411       .  A
C439        C440   1.397       .  A
C439        F446   1.357       .  S
C440        C441   1.413       .  A
C440        H445   1.079       .  S
C441        C442   1.415       .  A
C442        F443   1.358       .  S
C447        C448   1.396       .  A
C447        C452   1.398       .  A
C447        H454   1.084       .  S
C448        C449   1.398       .  A
C449        C450   1.400       .  A
C449        F456   1.357       .  S
C450        C451   1.422       .  A
C450        H455   1.083       .  S
C451        C452   1.428       .  A
C452        F453   1.355       .  S
C457        C458   1.416       .  A
C457        C462   1.393       .  A
C457        H464   1.077       .  S
C458        C459   1.419       .  A
C459        C460   1.402       .  A
C459        F466   1.357       .  S
C460        C461   1.406       .  A
C460        H465   1.083       .  S
C461        C462   1.406       .  A
C462        F463   1.358       .  S
C467        C468   1.402       .  A
C467        C472   1.393       .  A
C467        H474   1.082       .  S
C468        C469   1.409       .  A
C469        C470   1.401       .  A
C469        F476   1.357       .  S
C470        C471   1.415       .  A
C470        H475   1.083       .  S
C471        C472   1.423       .  A
C472        F473   1.355       .  S
C477        C478   1.420       .  A
C477        C482   1.399       .  A
C477        H484   1.080       .  S
C478        C479   1.420       .  A
C479        C480   1.402       .  A
C479        F486   1.355       .  S
C480        C481   1.399       .  A
C480        H485   1.083       .  S
C481        C482   1.398       .  A
C482        F483   1.358       .  S
C487        C488   1.416       .  A
C487        C492   1.403       .  A
C487        H494   1.079       .  S
C488        C489   1.417       .  A
C489        C490   1.397       .  A
C489        F496   1.357       .  S
C490        C491   1.404       .  A
C490        H495   1.083       .  S
C491        C492   1.408       .  A
C492        F493   1.357       .  S
C497        C498   1.396       .  A
C497        C502   1.398       .  A
C497        H504   1.083       .  S
C498        C499   1.400       .  A
C499        C500   1.400       .  A
C499        F506   1.358       .  S
C500        C501   1.418       .  A
C500        H505   1.079       .  S
C501        C502   1.422       .  A
C502        F503   1.356       .  S
C507        C508   1.417       .  A
C507        C512   1.401       .  A
C507        H514   1.078       .  S
C508        C509   1.417       .  A
C509        C510   1.399       .  A
C509        F516   1.358       .  S
C510        C511   1.405       .  A
C510        H515   1.083       .  S
C511        C512   1.405       .  A
C512        F513   1.357       .  S
C517        C518   1.414       .  A
C517        C522   1.397       .  A
C517        H524   1.080       .  S
C518        C519   1.417       .  A
C519        C520   1.399       .  A
C519        F526   1.358       .  S
C520        C521   1.407       .  A
C520        H525   1.082       .  S
C521        C522   1.408       .  A
C522        F523   1.357       .  S
C527        C528   1.422       .  A
C527        C532   1.401       .  A
C527        H534   1.083       .  S
C528        C529   1.430       .  A
C529        C530   1.401       .  A
C529        F536   1.354       .  S
C530        C531   1.396       .  A
C530        H535   1.084       .  S
C531        C532   1.398       .  A
C532        F533   1.357       .  S
C537        C538   1.405       .  A
C537        C542   1.403       .  A
C537        H544   1.083       .  S
C538        C539   1.404       .  A
C539        C540   1.394       .  A
C539        F546   1.358       .  S
C540        C541   1.417       .  A
C540        H545   1.078       .  S
C541        C542   1.419       .  A
C542        F543   1.357       .  S
C547        C548   1.405       .  A
C547        C552   1.405       .  A
C547        H554   1.083       .  S
C548        C549   1.405       .  A
C549        C550   1.394       .  A
C549        F556   1.358       .  S
C550        C551   1.416       .  A
C550        H555   1.077       .  S
C551        C552   1.421       .  A
C552        F553   1.357       .  S
C557        C558   1.421       .  A
C557        C562   1.395       .  A
C557        H564   1.077       .  S
C558        C559   1.421       .  A
C559        C560   1.403       .  A
C559        F566   1.358       .  S
C560        C561   1.400       .  A
C560        H565   1.083       .  S
C561        C562   1.395       .  A
C562        F563   1.358       .  S
C567        C568   1.405       .  A
C567        C572   1.396       .  A
C567        H574   1.082       .  S
C568        C569   1.408       .  A
C569        C570   1.400       .  A
C569        F576   1.357       .  S
C570        C571   1.416       .  A
C570        H575   1.079       .  S
C571        C572   1.417       .  A
C572        F573   1.358       .  S
C577        C578   1.406       .  A
C577        C582   1.402       .  A
C577        H584   1.083       .  S
C578        C579   1.402       .  A
C579        C580   1.394       .  A
C579        F586   1.358       .  S
C580        C581   1.419       .  A
C580        H585   1.077       .  S
C581        C582   1.418       .  A
C582        F583   1.358       .  S
C587        C588   1.417       .  A
C587        C592   1.393       .  A
C587        H594   1.076       .  S
C588        C589   1.418       .  A
C589        C590   1.403       .  A
C589        F596   1.357       .  S
C590        C591   1.407       .  A
C590        H595   1.082       .  S
C591        C592   1.405       .  A
C592        F593   1.358       .  S
C597        C598   1.414       .  A
C597        C602   1.396       .  A
C597        H604   1.083       .  S
C598        C599   1.422       .  A
C599        C600   1.400       .  A
C599        F606   1.355       .  S
C600        C601   1.401       .  A
C600        H605   1.083       .  S
C601        C602   1.404       .  A
C602        F603   1.358       .  S
C607        C608   1.416       .  A
C607        C612   1.399       .  A
C607        H614   1.082       .  S
C608        C609   1.423       .  A
C609        C610   1.401       .  A
C609        F616   1.356       .  S
C610        C611   1.399       .  A
C610        H615   1.083       .  S
C611        C612   1.401       .  A
C612        F613   1.357       .  S
C617        C618   1.398       .  A
C617        C622   1.399       .  A
C617        H624   1.084       .  S
C618        C619   1.395       .  A
C619        C620   1.390       .  A
C619        F626   1.358       .  S
C620        C621   1.421       .  A
C620        H625   1.083       .  S
C621        C622   1.423       .  A
C622        F623   1.352       .  S
C627        C628   1.389   1_655  A
C627        C632   1.393       .  A
C627        H634   1.084       .  S
C628        C629   1.397       .  A
C629        C630   1.396       .  A
C629        F636   1.358       .  S
C630        C631   1.424   1_455  A
C630        H635   1.078       .  S
C631        C632   1.430       .  A
C632        F633   1.348       .  S
C637        C638   1.418   1_655  A
C637        C642   1.399       .  A
C637        H644   1.076       .  S
C638        C639   1.424       .  A
C639        C640   1.394       .  A
C639        F646   1.357       .  S
C640        C641   1.394       .  A
C640        H645   1.084       .  S
C641        C642   1.397   1_455  A
C642        F643   1.358       .  S
C647        C648   1.407       .  A
C647        C652   1.402       .  A
C647        H654   1.083       .  S
C648        C649   1.402       .  A
C649        C650   1.390       .  A
C649        F656   1.358       .  S
C650        C651   1.416       .  A
C650        H655   1.081       .  S
C651        C652   1.414       .  A
C652        F653   1.356       .  S
C657        C658   1.403   1_655  A
C657        C662   1.404       .  A
C657        H664   1.083       .  S
C658        C659   1.398       .  A
C659        C660   1.393       .  A
C659        F666   1.358       .  S
C660        C661   1.418       .  A
C660        H665   1.083       .  S
C661        C662   1.418   1_455  A
C662        F663   1.355       .  S
C667        C668   1.422   1_455  A
C667        C672   1.398       .  A
C667        H674   1.079       .  S
C668        C669   1.430       .  A
C669        C670   1.394       .  A
C669        F676   1.347       .  S
C670        C671   1.389   1_655  A
C670        H675   1.084       .  S
C671        C672   1.400       .  A
C672        F673   1.358       .  S
C677        C678   1.415       .  A
C677        C682   1.400       .  A
C677        H684   1.081       .  S
C678        C679   1.423       .  A
C679        C680   1.400       .  A
C679        F686   1.357       .  S
C680        C681   1.398       .  A
C680        H685   1.083       .  S
C681        C682   1.401       .  A
C682        F683   1.357       .  S
C687        C688   1.415       .  A
C687        C692   1.400       .  A
C687        H694   1.079       .  S
C688        C689   1.418       .  A
C689        C690   1.397       .  A
C689        F696   1.357       .  S
C690        C691   1.403       .  A
C690        H695   1.083       .  S
C691        C692   1.406       .  A
C692        F693   1.357       .  S
C697        C698   1.411       .  A
C697        C702   1.401       .  A
C697        H704   1.082       .  S
C698        C699   1.423       .  A
C699        C700   1.393       .  A
C699        F706   1.357       .  S
C700        C701   1.398       .  A
C700        H705   1.083       .  S
C701        C702   1.410       .  A
C702        F703   1.357       .  S
C707        C708   1.403       .  A
C707        C712   1.402       .  A
C707        H714   1.083       .  S
C708        C709   1.398       .  A
C709        C710   1.390       .  A
C709        F716   1.358       .  S
C710        C711   1.416       .  A
C710        H715   1.082       .  S
C711        C712   1.418       .  A
C712        F713   1.356       .  S
C717        C718   1.396       .  A
C717        C722   1.393       .  A
C717        H724   1.084       .  S
C718        C719   1.405       .  A
C719        C720   1.400       .  A
C719        F726   1.357       .  S
C720        C721   1.413       .  A
C720        H725   1.080       .  S
C721        C722   1.421       .  A
C722        F723   1.357       .  S
C727        C728   1.394   1_565  A
C727        C732   1.392       .  A
C727        H734   1.084       .  S
C728        C729   1.403       .  A
C729        C730   1.400       .  A
C729        F736   1.358       .  S
C730        C731   1.415   1_545  A
C730        H735   1.078       .  S
C731        C732   1.424       .  A
C732        F733   1.358       .  S
C737        C738   1.422   1_565  A
C737        C742   1.394       .  A
C737        H744   1.083       .  S
C738        C739   1.422       .  A
C739        C740   1.398       .  A
C739        F746   1.353       .  S
C740        C741   1.398       .  A
C740        H745   1.084       .  S
C741        C742   1.395   1_545  A
C742        F743   1.358       .  S
C747        C748   1.402       .  A
C747        C752   1.394       .  A
C747        H754   1.083       .  S
C748        C749   1.405       .  A
C749        C750   1.402       .  A
C749        F756   1.357       .  S
C750        C751   1.416       .  A
C750        H755   1.079       .  S
C751        C752   1.417       .  A
C752        F753   1.357       .  S
C757        C758   1.399       .  A
C757        C762   1.397       .  A
C757        H764   1.084       .  S
C758        C759   1.402       .  A
C759        C760   1.402       .  A
C759        F766   1.357       .  S
C760        C761   1.416       .  A
C760        H765   1.082       .  S
C761        C762   1.422       .  A
C762        F763   1.356       .  S
C767        C768   1.417       .  A
C767        C772   1.391       .  A
C767        H774   1.083       .  S
C768        C769   1.418       .  A
C769        C770   1.400       .  A
C769        F776   1.356       .  S
C770        C771   1.402       .  A
C770        H775   1.083       .  S
C771        C772   1.397       .  A
C772        F773   1.358       .  S
C777        C778   1.416       .  A
C777        C782   1.398       .  A
C777        H784   1.077       .  S
C778        C779   1.424       .  A
C779        C780   1.392       .  A
C779        F786   1.358       .  S
C780        C781   1.394       .  A
C780        H785   1.084       .  S
C781        C782   1.401       .  A
C782        F783   1.358       .  S
C787        C788   1.417   1_545  A
C787        C792   1.397       .  A
C787        H794   1.077       .  S
C788        C789   1.425       .  A
C789        C790   1.392       .  A
C789        F796   1.358       .  S
C790        C791   1.393   1_565  A
C790        H795   1.084       .  S
C791        C792   1.400       .  A
C792        F793   1.358       .  S
C797        C798   1.415   1_565  A
C797        C802   1.400       .  A
C797        H804   1.080       .  S
C798        C799   1.420       .  A
C799        C800   1.394       .  A
C799        F806   1.357       .  S
C800        C801   1.397       .  A
C800        H805   1.084       .  S
C801        C802   1.402   1_545  A
C802        F803   1.357       .  S
C807        C808   1.408       .  A
C807        C812   1.403       .  A
C807        H814   1.083       .  S
C808        C809   1.402       .  A
C809        C810   1.390       .  A
C809        F816   1.358       .  S
C810        C811   1.417       .  A
C810        H815   1.082       .  S
C811        C812   1.414       .  A
C812        F813   1.356       .  S
C817        C818   1.396       .  A
C817        C822   1.401       .  A
C817        H824   1.084       .  S
C818        C819   1.392       .  A
C819        C820   1.395       .  A
C819        F826   1.358       .  S
C820        C821   1.424       .  A
C820        H825   1.067       .  S
C821        C822   1.432       .  A
C822        F823   1.358       .  S
C827        C828   1.419       .  A
C827        C832   1.398       .  A
C827        H834   1.078       .  S
C828        C829   1.423       .  A
C829        C830   1.395       .  A
C829        F836   1.360       .  S
C830        C831   1.403       .  A
C830        H835   1.082       .  S
C831        C832   1.407       .  A
C832        F833   1.357       .  S
C837        C838   1.414       .  A
C837        C842   1.403       .  A
C837        H844   1.083       .  S
C838        C839   1.422       .  A
C839        C840   1.394       .  A
C839        F846   1.356       .  S
C840        C841   1.404       .  A
C840        H845   1.082       .  S
C841        C842   1.411       .  A
C842        F843   1.357       .  S
C847        C848   1.402       .  A
C847        C852   1.394       .  A
C847        H854   1.082       .  S
C848        C849   1.413       .  A
C849        C850   1.402       .  A
C849        F856   1.357       .  S
C850        C851   1.412       .  A
C850        H855   1.083       .  S
C851        C852   1.425       .  A
C852        F853   1.355       .  S
C857        C858   1.429       .  A
C857        C862   1.395       .  A
C857        H864   1.078       .  S
C858        C859   1.427       .  A
C859        C860   1.395       .  A
C859        F866   1.345       .  S
C860        C861   1.390       .  A
C860        H865   1.084       .  S
C861        C862   1.392       .  A
C862        F863   1.358       .  S
C867        C868   1.394       .  A
C867        C872   1.393       .  A
C867        H874   1.084       .  S
C868        C869   1.400   1_545  A
C869        C870   1.400       .  A
C869        F876   1.358       .  S
C870        C871   1.417   1_565  A
C870        H875   1.077       .  S
C871        C872   1.424       .  A
C872        F873   1.358       .  S
C877        C878   1.417       .  A
C877        C882   1.387       .  A
C877        H884   1.079       .  S
C878        C879   1.416       .  A
C879        C880   1.404       .  A
C879        F886   1.357   1_565  S
C880        C881   1.407       .  A
C880        H885   1.083       .  S
C881        C882   1.401       .  A
C882        F883   1.358       .  S
C887        C888   1.392       .  A
C887        C892   1.391       .  A
C887        H894   1.084       .  S
C888        C889   1.400       .  A
C889        C890   1.396       .  A
C889        F896   1.358       .  S
C890        C891   1.414       .  A
C890        H895   1.078       .  S
C891        C892   1.425       .  A
C892        F893   1.357       .  S
C897        C898   1.419       .  A
C897        C902   1.396       .  A
C897        H904   1.078       .  S
C898        C899   1.424       .  A
C899        C900   1.401       .  A
C899        F906   1.359       .  S
C900        C901   1.403       .  A
C900        H905   1.083       .  S
C901        C902   1.405       .  A
C902        F903   1.358       .  S
C907        C908   1.426       .  A
C907        C912   1.401       .  A
C907        H914   1.077       .  S
C908        C909   1.430       .  A
C909        C910   1.399       .  A
C909        F916   1.346       .  S
C910        C911   1.391       .  A
C910        H915   1.084       .  S
C911        C912   1.395       .  A
C912        F913   1.358       .  S
C917        C918   1.395       .  A
C917        C922   1.390       .  A
C917        H924   1.084       .  S
C918        C919   1.407       .  A
C919        C920   1.401       .  A
C919        F926   1.357       .  S
C920        C921   1.418       .  A
C920        H925   1.083       .  S
C921        C922   1.426       .  A
C922        F923   1.352       .  S
C927        C928   1.394       .  A
C927        C932   1.393       .  A
C927        H934   1.084       .  S
C928        C929   1.401   1_554  A
C929        C930   1.399       .  A
C929        F936   1.358       .  S
C930        C931   1.416   1_556  A
C930        H935   1.076       .  S
C931        C932   1.426       .  A
C932        F933   1.358       .  S
C937        C938   1.418       .  A
C937        C942   1.387       .  A
C937        H944   1.079       .  S
C938        C939   1.416       .  A
C939        C940   1.407       .  A
C939        F946   1.357       .  S
C940        C941   1.408       .  A
C940        H945   1.083       .  S
C941        C942   1.401       .  A
C942        F943   1.358       .  S
C947        C948   1.392       .  A
C947        C952   1.399       .  A
C947        H954   1.084       .  S
C948        C949   1.390       .  A
C949        C950   1.390       .  A
C949        F956   1.358       .  S
C950        C951   1.423       .  A
C950        H955   1.071       .  S
C951        C952   1.435       .  A
C952        F953   1.350       .  S
C957        C958   1.396       .  A
C957        C962   1.393       .  A
C957        H964   1.084       .  S
C958        C959   1.404       .  A
C959        C960   1.399       .  A
C959        F966   1.358       .  S
C960        C961   1.414       .  A
C960        H965   1.081       .  S
C961        C962   1.423       .  A
C962        F963   1.358       .  S
C967        C968   1.392   1_545  A
C967        C972   1.389       .  A
C967        H974   1.084       .  S
C968        C969   1.401       .  A
C969        C970   1.398       .  A
C969        F976   1.358       .  S
C970        C971   1.415       .  A
C970        H975   1.078       .  S
C971        C972   1.424   1_565  A
C972        F973   1.358       .  S
C977        C978   1.397       .  A
C977        C982   1.397       .  A
C977        H984   1.084       .  S
C978        C979   1.394   1_565  A
C979        C980   1.392       .  A
C979        F986   1.358       .  S
C980        C981   1.421   1_545  A
C980        H985   1.083       .  S
C981        C982   1.422       .  A
C982        F983   1.353       .  S
C987        C988   1.405       .  A
C987        C992   1.404       .  A
C987        H994   1.083       .  S
C988        C989   1.403       .  A
C989        C990   1.389       .  A
C989        F996   1.358       .  S
C990        C991   1.416       .  A
C990        H995   1.076       .  S
C991        C992   1.420       .  A
C992        F993   1.357       .  S
C997        C998   1.416       .  A
C997       C1002   1.402       .  A
C997       H1004   1.083       .  S
C998        C999   1.426       .  A
C999       C1000   1.395       .  A
C999       F1006   1.354       .  S
C1000      C1001   1.400       .  A
C1000      H1005   1.083       .  S
C1001      C1002   1.408       .  A
C1002      F1003   1.357       .  S
C1007      C1008   1.417       .  A
C1007      C1012   1.399       .  A
C1007      H1014   1.077       .  S
C1008      C1009   1.426       .  A
C1009      C1010   1.390       .  A
C1009      F1016   1.358       .  S
C1010      C1011   1.393       .  A
C1010      H1015   1.084       .  S
C1011      C1012   1.400       .  A
C1012      F1013   1.358       .  S
C1017      C1018   1.400       .  A
C1017      C1022   1.401       .  A
C1017      H1024   1.084       .  S
C1018      C1019   1.394       .  A
C1019      C1020   1.392       .  A
C1019      F1026   1.358       .  S
C1020      C1021   1.422       .  A
C1020      H1025   1.083       .  S
C1021      C1022   1.422       .  A
C1022      F1023   1.353       .  S
C1027      C1028   1.397       .  A
C1027      C1032   1.396       .  A
C1027      H1034   1.084       .  S
C1028      C1029   1.395       .  A
C1029      C1030   1.392       .  A
C1029      F1036   1.358       .  S
C1030      C1031   1.422       .  A
C1030      H1035   1.083       .  S
C1031      C1032   1.423       .  A
C1032      F1033   1.352       .  S
C1037      C1038   1.407   1_554  A
C1037      C1042   1.406       .  A
C1037      H1044   1.083       .  S
C1038      C1039   1.402       .  A
C1039      C1040   1.387       .  A
C1039      F1046   1.358       .  S
C1040      C1041   1.415       .  A
C1040      H1045   1.080       .  S
C1041      C1042   1.416   1_556  A
C1042      F1043   1.357       .  S
C1047      C1048   1.398       .  A
C1047      C1052   1.388       .  A
C1047      H1054   1.084       .  S
C1048      C1049   1.407   1_556  A
C1049      C1050   1.403       .  A
C1049      F1056   1.357       .  S
C1050      C1051   1.413   1_554  A
C1050      H1055   1.083       .  S
C1051      C1052   1.421       .  A
C1052      F1053   1.357       .  S
C1057      C1058   1.415       .  A
C1057      C1062   1.392       .  A
C1057      H1064   1.077       .  S
C1058      C1059   1.430       .  A
C1059      C1060   1.399       .  A
C1059      F1066   1.353       .  S
C1060      C1061   1.401       .  A
C1060      H1065   1.083       .  S
C1061      C1062   1.403       .  A
C1062      F1063   1.357       .  S
C1067      C1068   1.396       .  A
C1067      C1072   1.401       .  A
C1067      H1074   1.084       .  S
C1068      C1069   1.396       .  A
C1069      C1070   1.395       .  A
C1069      F1076   1.358       .  S
C1070      C1071   1.421       .  A
C1070      H1075   1.068       .  S
C1071      C1072   1.435       .  A
C1072      F1073   1.355       .  S
C1077      C1078   1.413       .  A
C1077      C1082   1.399       .  A
C1077      H1084   1.079       .  S
C1078      C1079   1.419       .  A
C1079      C1080   1.396       .  A
C1079      F1086   1.357       .  S
C1080      C1081   1.401       .  A
C1080      H1085   1.083       .  S
C1081      C1082   1.406       .  A
C1082      F1083   1.358       .  S
C1087      C1088   1.397       .  A
C1087      C1092   1.396       .  A
C1087      H1094   1.084       .  S
C1088      C1089   1.399       .  A
C1089      C1090   1.397       .  A
C1089      F1096   1.357       .  S
C1090      C1091   1.416       .  A
C1090      H1095   1.082       .  S
C1091      C1092   1.422       .  A
C1092      F1093   1.356       .  S
C1097      C1098   1.391       .  A
C1097      C1102   1.389       .  A
C1097      H1104   1.084       .  S
C1098      C1099   1.400       .  A
C1099      C1100   1.398       .  A
C1099      F1106   1.358       .  S
C1100      C1101   1.415       .  A
C1100      H1105   1.080       .  S
C1101      C1102   1.424       .  A
C1102      F1103   1.356       .  S
C1107      C1108   1.397   1_455  A
C1107      C1112   1.402       .  A
C1107      H1114   1.084       .  S
C1108      C1109   1.393       .  A
C1109      C1110   1.394       .  A
C1109      F1116   1.358       .  S
C1110      C1111   1.418       .  A
C1110      H1115   1.080       .  S
C1111      C1112   1.426   1_655  A
C1112      F1113   1.352       .  S
C1117      C1118   1.422       .  A
C1117      C1122   1.392       .  A
C1117      H1124   1.073       .  S
C1118      C1119   1.418   1_455  A
C1119      C1120   1.401       .  A
C1119      F1126   1.357       .  S
C1120      C1121   1.407       .  A
C1120      H1125   1.083       .  S
C1121      C1122   1.397   1_655  A
C1122      F1123   1.358       .  S
C1127      C1128   1.402       .  A
C1127      C1132   1.398       .  A
C1127      H1134   1.084       .  S
C1128      C1129   1.397       .  A
C1129      C1130   1.391       .  A
C1129      F1136   1.358       .  S
C1130      C1131   1.417       .  A
C1130      H1135   1.083       .  S
C1131      C1132   1.417       .  A
C1132      F1133   1.356       .  S
C1137      C1138   1.395       .  A
C1137      C1142   1.391       .  A
C1137      H1144   1.083       .  S
C1138      C1139   1.411   1_655  A
C1139      C1140   1.402       .  A
C1139      F1146   1.357       .  S
C1140      C1141   1.411   1_455  A
C1140      H1145   1.083       .  S
C1141      C1142   1.427       .  A
C1142      F1143   1.356       .  S
C1147      C1148   1.398   1_455  A
C1147      C1152   1.402       .  A
C1147      H1154   1.084       .  S
C1148      C1149   1.394       .  A
C1149      C1150   1.394       .  A
C1149      F1156   1.358       .  S
C1150      C1151   1.414       .  A
C1150      H1155   1.078       .  S
C1151      C1152   1.425   1_655  A
C1152      F1153   1.354       .  S
C1157      C1158   1.419       .  A
C1157      C1162   1.399       .  A
C1157      H1164   1.079       .  S
C1158      C1159   1.422       .  A
C1159      C1160   1.401       .  A
C1159      F1166   1.356       .  S
C1160      C1161   1.398       .  A
C1160      H1165   1.083       .  S
C1161      C1162   1.398       .  A
C1162      F1163   1.358       .  S
C1167      C1168   1.417       .  A
C1167      C1172   1.399       .  A
C1167      H1174   1.083       .  S
C1168      C1169   1.421       .  A
C1169      C1170   1.402       .  A
C1169      F1176   1.354       .  S
C1170      C1171   1.404       .  A
C1170      H1175   1.083       .  S
C1171      C1172   1.404       .  A
C1172      F1173   1.357       .  S
C1177      C1178   1.419       .  A
C1177      C1182   1.394       .  A
C1177      H1184   1.083       .  S
C1178      C1179   1.417       .  A
C1179      C1180   1.400       .  A
C1179      F1186   1.355       .  S
C1180      C1181   1.403       .  A
C1180      H1185   1.084       .  S
C1181      C1182   1.397       .  A
C1182      F1183   1.358       .  S
C1187      C1188   1.406       .  A
C1187      C1192   1.403       .  A
C1187      H1194   1.083       .  S
C1188      C1189   1.402       .  A
C1189      C1190   1.388       .  A
C1189      F1196   1.358       .  S
C1190      C1191   1.417       .  A
C1190      H1195   1.081       .  S
C1191      C1192   1.415       .  A
C1192      F1193   1.356       .  S
C1197      C1198   1.409       .  A
C1197      C1202   1.408       .  A
C1197      H1204   1.083       .  S
C1198      C1199   1.401       .  A
C1199      C1200   1.385       .  A
C1199      F1206   1.358       .  S
C1200      C1201   1.418       .  A
C1200      H1205   1.079       .  S
C1201      C1202   1.416       .  A
C1202      F1203   1.357       .  S
C1207      C1208   1.396       .  A
C1207      C1212   1.391       .  A
C1207      H1214   1.084       .  S
C1208      C1209   1.403   1_554  A
C1209      C1210   1.399       .  A
C1209      F1216   1.357       .  S
C1210      C1211   1.414   1_556  A
C1210      H1215   1.080       .  S
C1211      C1212   1.420       .  A
C1212      F1213   1.357       .  S
C1217      C1218   1.397       .  A
C1217      C1222   1.397       .  A
C1217      H1224   1.084       .  S
C1218      C1219   1.396   1_554  A
C1219      C1220   1.393       .  A
C1219      F1226   1.358       .  S
C1220      C1221   1.423   1_556  A
C1220      H1225   1.083       .  S
C1221      C1222   1.424       .  A
C1222      F1223   1.352       .  S
C1227      C1228   1.414       .  A
C1227      C1232   1.395       .  A
C1227      H1234   1.083       .  S
C1228      C1229   1.420       .  A
C1229      C1230   1.404       .  A
C1229      F1236   1.355       .  S
C1230      C1231   1.405       .  A
C1230      H1235   1.083       .  S
C1231      C1232   1.406       .  A
C1232      F1233   1.357       .  S
C1237      C1238   1.417       .  A
C1237      C1242   1.397       .  A
C1237      H1244   1.080       .  S
C1238      C1239   1.421       .  A
C1239      C1240   1.402       .  A
C1239      F1246   1.356       .  S
C1240      C1241   1.399       .  A
C1240      H1245   1.083       .  S
C1241      C1242   1.400       .  A
C1242      F1243   1.358       .  S
C1247      C1248   1.404       .  A
C1247      C1252   1.402       .  A
C1247      H1254   1.083       .  S
C1248      C1249   1.398       .  A
C1249      C1250   1.393       .  A
C1249      F1256   1.358       .  S
C1250      C1251   1.417       .  A
C1250      H1255   1.082       .  S
C1251      C1252   1.416       .  A
C1252      F1253   1.356       .  S
C1257      C1258   1.407       .  A
C1257      C1262   1.401       .  A
C1257      H1264   1.083       .  S
C1258      C1259   1.399       .  A
C1259      C1260   1.386       .  A
C1259      F1266   1.358       .  S
C1260      C1261   1.420       .  A
C1260      H1265   1.079       .  S
C1261      C1262   1.419       .  A
C1262      F1263   1.358       .  S
C1267      C1268   1.416       .  A
C1267      C1272   1.392       .  A
C1267      H1274   1.082       .  S
C1268      C1269   1.416   1_554  A
C1269      C1270   1.400       .  A
C1269      F1276   1.356       .  S
C1270      C1271   1.403   1_556  A
C1270      H1275   1.083       .  S
C1271      C1272   1.398       .  A
C1272      F1273   1.358       .  S
C1277      C1278   1.418       .  A
C1277      C1282   1.394       .  A
C1277      H1284   1.083       .  S
C1278      C1279   1.420   1_554  A
C1279      C1280   1.401       .  A
C1279      F1286   1.355       .  S
C1280      C1281   1.402   1_556  A
C1280      H1285   1.083       .  S
C1281      C1282   1.398       .  A
C1282      F1283   1.358       .  S
C1287      C1288   1.408       .  A
C1287      C1292   1.406       .  A
C1287      H1294   1.083       .  S
C1288      C1289   1.401       .  A
C1289      C1290   1.386       .  A
C1289      F1296   1.358       .  S
C1290      C1291   1.416       .  A
C1290      H1295   1.080       .  S
C1291      C1292   1.415       .  A
C1292      F1293   1.357       .  S
