geometry optimzed in LAMMPS
_audit_creation_date              2020-11-30 
_audit_creation_method            'lammps2cif' 
_symmetry_space_group_name_H-M    'P1' 
_symmetry_Int_Tables_number       1 
_symmetry_cell_setting            triclinic 
loop_ 
_symmetry_equiv_pos_as_xyz 
  x,y,z 
_cell_length_a                    26.57780312 
_cell_length_b                    26.74382325167779 
_cell_length_c                    26.85513916951928 
_cell_angle_alpha                 91.0764736026222 
_cell_angle_beta                  89.72309042001274 
_cell_angle_gamma                 89.34444442038975 
loop_ 
_atom_site_label 
_atom_site_type_symbol 
_atom_site_fract_x 
_atom_site_fract_y 
_atom_site_fract_z 
_atom_site_charge 
O1          O  0.60769121  0.94529819  0.47851250    -0.75700
O2          O  0.40000038  0.95065590  0.54560552    -0.75700
O3          O  0.53788364  0.91082430  0.56620633    -0.75700
O4          O  0.51753313  0.90551518  0.43376393    -0.75700
O5          O  0.48094188  0.95598339  0.60824975    -0.75800
O6          O  0.55900770  0.96399102  0.39874873    -0.75700
O7          O  0.43664876  0.89607938  0.49393987    -0.75700
O8          O  0.63390868  0.95185529  0.55627257    -0.75700
C9          C  0.64102452  0.93657739  0.51139854     1.14000
C10         C  0.40684416  0.90610758  0.52981474     1.13900
C11         C  0.51317161  0.91943492  0.60574463     1.14000
C12         C  0.54115235  0.92003794  0.39679810     1.13900
O13         O  0.51465109  0.05726235  0.44487162    -0.75700
O14         O  0.49794194  0.05784390  0.56884057    -0.75800
O15         O  0.59580653  0.04121601  0.52489386    -0.75700
O16         O  0.39605305  0.98767003  0.45718788    -0.75700
O17         O  0.41926313  0.04970124  0.50595139    -0.75800
O18         O  0.61710953  0.04128514  0.44548269    -0.75700
O19         O  0.47784836  0.00321789  0.39530114    -0.75700
O20         O  0.55363944  0.01194773  0.60565072    -0.75700
Co21       Co  0.55941156  0.00373387  0.46533681     1.51500
Co22       Co  0.45159451  0.00357894  0.55490337     1.51700
Co23       Co  0.56538271  0.97247603  0.54037919     1.51600
Co24       Co  0.45928891  0.94841574  0.44741095     1.51500
O25         O  0.50018753  0.97916773  0.50273240    -1.37600
C26         C  0.49946158  0.04582805  0.40219942     1.13900
C27         C  0.52487484  0.05046172  0.60593028     1.14000
C28         C  0.62103822  0.05964210  0.48914154     1.13900
C29         C  0.39488365  0.03363208  0.46863635     1.13900
O30         O  0.91397927  0.58115493  0.52124818    -0.75700
O31         O  0.91893966  0.44735768  0.50215898    -0.75700
O32         O  0.93934449  0.52602078  0.43186083    -0.75700
O33         O  0.96902968  0.47285594  0.63573137    -0.75700
O34         O  0.95496848  0.44917648  0.40561764    -0.75800
O35         O  0.91073789  0.52088269  0.60227814    -0.75700
O36         O  0.96458369  0.40690417  0.55766282    -0.75700
O37         O  0.96822285  0.61325385  0.47166028    -0.75700
C38         C  0.92718750  0.61762709  0.49620686     1.14000
C39         C  0.92566919  0.41006417  0.52917488     1.13900
C40         C  0.93271803  0.49110676  0.39956782     1.14000
C41         C  0.92347308  0.48632103  0.63166523     1.13900
O42         O  0.00586734  0.55984475  0.63298401    -0.75700
O43         O  0.04751793  0.48351502  0.43712838    -0.75800
O44         O  0.06416316  0.57049611  0.50023473    -0.75700
O45         O  0.06780350  0.44203084  0.52979690    -0.75700
O46         O  0.01729713  0.40104307  0.48302217    -0.75800
O47         O  0.01588920  0.61777741  0.55028378    -0.75700
O48         O  0.06667452  0.50928361  0.60665508    -0.75700
O49         O  0.03278665  0.55481098  0.40110497    -0.75700
Co50       Co  0.96170357  0.56744400  0.57439718     1.51500
Co51       Co  0.98061101  0.46864456  0.47090033     1.51700
Co52       Co  0.00443576  0.54482572  0.46765397     1.51600
Co53       Co  0.01724545  0.45997190  0.58004549     1.51500
O54         O  0.99062456  0.51104999  0.53284839    -1.37600
C55         C  0.05168741  0.54680162  0.63232776     1.13900
C56         C  0.05382512  0.51175589  0.39999279     1.14000
C57         C  0.05634858  0.61102623  0.52389593     1.13900
C58         C  0.05668232  0.40116631  0.51005366     1.13900
O59         O  0.40947399  0.51821567  0.04828731    -0.75700
O60         O  0.61456523  0.45097600  0.01719313    -0.75700
O61         O  0.48727941  0.43440851  0.06816371    -0.75700
O62         O  0.50020469  0.55913116  0.07895214    -0.75700
O63         O  0.53232210  0.38903671  0.01538414    -0.75800
O64         O  0.45433118  0.60197871  0.02960803    -0.75700
O65         O  0.58192036  0.49627830  0.07876010    -0.75700
O66         O  0.38640892  0.43920994  0.04169152    -0.75700
C67         C  0.38130403  0.48254620  0.06184688     1.14000
C68         C  0.61056573  0.46101168  0.06318403     1.13900
C69         C  0.50458355  0.39249363  0.05493989     1.14000
C70         C  0.47924498  0.59989666  0.07012178     1.13900
O71         O  0.48414277  0.56572894  0.92974397    -0.75700
O72         O  0.50795306  0.43537536  0.91771666    -0.75800
O73         O  0.40902179  0.47692284  0.94990514    -0.75700
O74         O  0.61624117  0.54181278  0.98813925    -0.75700
O75         O  0.58982449  0.49588456  0.92452750    -0.75800
O76         O  0.38320618  0.55533259  0.95725345    -0.75700
O77         O  0.53361444  0.60453363  0.98368697    -0.75700
O78         O  0.45713076  0.39692964  0.96689802    -0.75700
Co79       Co  0.44824155  0.53758496  0.98567739     1.51500
Co80       Co  0.55864668  0.44529878  0.96887814     1.51700
Co81       Co  0.44967360  0.45977813  0.01209332     1.51600
Co82       Co  0.55585169  0.54826418  0.03217239     1.51500
O83         O  0.51210677  0.49827951  0.99793237    -1.37600
C84         C  0.50618559  0.60484509  0.94405862     1.13900
C85         C  0.48168298  0.39810359  0.92594039     1.14000
C86         C  0.37826757  0.51159762  0.93802176     1.13900
C87         C  0.61783212  0.52990608  0.94227248     1.13900
N88         N  0.61873629  0.90861763  0.76283655     0.01000
C89         C  0.62906510  0.94947929  0.79226790     0.03500
C90         C  0.61415852  0.99283906  0.76919384    -0.19300
C91         C  0.59207806  0.97898198  0.72546219    -0.19500
C92         C  0.59470829  0.92758753  0.72241368     0.03400
H93         H  0.61264999  0.03010618  0.78570612     0.17200
H94         H  0.57186358  0.00357971  0.70093844     0.17300
C95         C  0.79138181  0.75776375  0.70979345     0.84600
N96         N  0.79836866  0.72419618  0.74709235    -0.73700
C97         C  0.76672719  0.72421181  0.78748899     0.87100
N98         N  0.72794394  0.75818139  0.79023788    -0.73600
C99         C  0.72036739  0.79184282  0.75336905     0.87200
N100        N  0.75231866  0.79139234  0.71334920    -0.75300
N101        N  0.87909075  0.77463523  0.58482566     0.01000
C102        C  0.88954049  0.82294080  0.57399324     0.03500
C103        C  0.87728298  0.83262072  0.52516824    -0.19300
C104        C  0.86221208  0.78842731  0.50400394    -0.19500
C105        C  0.86594312  0.75286915  0.54036411     0.03400
H106        H  0.88645079  0.86576172  0.50471167     0.17200
H107        H  0.85810602  0.78142586  0.46437881     0.17300
N108        N  0.76425673  0.63494277  0.90913848     0.01000
C109        C  0.78490804  0.65111647  0.95330364     0.03500
C110        C  0.74737438  0.66823710  0.98515430    -0.19300
C111        C  0.70322649  0.65323967  0.96438226    -0.19500
C112        C  0.71457309  0.63072245  0.91952557     0.03400
H113        H  0.75169589  0.67729169  0.02439791     0.17200
H114        H  0.66872460  0.64824958  0.98421991     0.17300
C115        C  0.30915955  0.20637547  0.73721687     0.84600
N116        N  0.31106393  0.24403030  0.77241037    -0.73700
C117        C  0.27634188  0.28211977  0.77293214     0.87100
N118        N  0.23943670  0.28232837  0.73794955    -0.73600
C119        C  0.23646410  0.24542235  0.70248688     0.87200
N120        N  0.27148504  0.20721414  0.70228633    -0.75300
N121        N  0.25264853  0.40024276  0.86806457     0.01000
C122        C  0.26699566  0.44725214  0.85493288     0.03500
C123        C  0.22516068  0.47637094  0.84511776    -0.19300
C124        C  0.18408246  0.44891170  0.85768037    -0.19500
C125        C  0.20200820  0.40367225  0.87453757     0.03400
H126        H  0.22461254  0.51639288  0.83961881     0.17200
H127        H  0.14644269  0.46403823  0.86316384     0.17300
N128        N  0.42715408  0.10537351  0.74764317     0.01000
C129        C  0.43888213  0.09028416  0.79443983     0.03500
C130        C  0.48561070  0.10756457  0.80792631    -0.19300
C131        C  0.50581526  0.12944541  0.76717809    -0.19500
C132        C  0.47146822  0.12299193  0.72946195     0.03400
H133        H  0.50709353  0.09608286  0.84002535     0.17200
H134        H  0.54548066  0.13725605  0.76269667     0.17300
N135        N  0.10454336  0.25869786  0.62534146     0.01000
C136        C  0.08584992  0.30549263  0.61652671     0.03500
C137        C  0.04097799  0.31288314  0.64206884    -0.19300
C138        C  0.02847034  0.26802670  0.66206184    -0.19500
C139        C  0.06658846  0.23496011  0.64904172     0.03400
H140        H  0.01499792  0.34400294  0.63776524     0.17200
H141        H  0.99151569  0.25856800  0.67592396     0.17300
O142        O  0.44403550  0.02537219  0.92744419    -0.75700
O143        O  0.42901982  0.98860343  0.10325531    -0.75700
O144        O  0.41927381  0.95704546  0.98576384    -0.75700
O145        O  0.42273157  0.08464085  0.06464609    -0.75700
O146        O  0.44104693  0.91019642  0.04652200    -0.75800
O147        O  0.44681141  0.10592722  0.98966935    -0.75700
O148        O  0.46680031  0.04105208  0.14749696    -0.75700
O149        O  0.47608357  0.95338844  0.90117047    -0.75700
C150        C  0.45022716  0.99310579  0.89239069     1.14000
C151        C  0.43565429  0.00619488  0.14518541     1.13900
C152        C  0.41131631  0.91942567  0.01119415     1.14000
C153        C  0.41537657  0.10834369  0.02567026     1.13900
O154        O  0.56035239  0.08701762  0.99423127    -0.75700
O155        O  0.55003778  0.91837179  0.05799951    -0.75800
O156        O  0.56553934  0.96100366  0.96062884    -0.75700
O157        O  0.56118660  0.06313042  0.10380374    -0.75700
O158        O  0.54204376  0.98751977  0.12969580    -0.75800
O159        O  0.55222633  0.02473298  0.91727220    -0.75700
O160        O  0.51722714  0.13335640  0.04351672    -0.75700
O161        O  0.51224929  0.89156994  0.99073180    -0.75700
Co162      Co  0.50100323  0.05641443  0.96472095     1.51500
Co163      Co  0.49105654  0.95560176  0.08113778     1.51700
Co164      Co  0.49226145  0.96377208  0.97289325     1.51600
Co165      Co  0.49233340  0.07373169  0.08349317     1.51500
O166        O  0.50038090  0.01165521  0.03051215    -1.37600
C167        C  0.55106222  0.12949640  0.01057929     1.13900
C168        C  0.54313950  0.88418177  0.02646360     1.14000
C169        C  0.57778625  0.98595115  0.92446098     1.13900
C170        C  0.57017220  0.02619707  0.13058464     1.13900
C171        C  0.29067781  0.75145367  0.82391852     0.84600
N172        N  0.29375711  0.78266045  0.78443735    -0.73700
C173        C  0.25662466  0.78383644  0.74962537     0.87100
N174        N  0.21619741  0.75329628  0.75450700    -0.73600
C175        C  0.21238813  0.72192158  0.79382342     0.87200
N176        N  0.24983646  0.72116048  0.82848102    -0.75300
N177        N  0.38844680  0.75617312  0.94089376     0.01000
C178        C  0.37483311  0.78466101  0.98143343     0.03500
C179        C  0.39439495  0.76453771  0.02421548    -0.19300
C180        C  0.42235791  0.72357054  0.00989293    -0.19500
C181        C  0.41867400  0.71920240  0.95888858     0.03400
H182        H  0.39425769  0.78172376  0.06106082     0.17200
H183        H  0.44650161  0.70206174  0.03373120     0.17300
N184        N  0.26730737  0.85811237  0.61846202     0.01000
C185        C  0.22395959  0.87252645  0.59606660     0.03500
C186        C  0.21761654  0.84576647  0.55214137    -0.19300
C187        C  0.26103619  0.81869985  0.54427702    -0.19500
C188        C  0.29257069  0.83044398  0.58338673     0.03400
H189        H  0.18975925  0.85324421  0.52383901     0.17200
H190        H  0.27234022  0.80245432  0.50864100     0.17300
N191        N  0.08484608  0.64091754  0.77872882     0.01000
C192        C  0.07412921  0.64549359  0.72989152     0.03500
C193        C  0.02676313  0.66603011  0.72381862    -0.19300
C194        C  0.00549276  0.66953740  0.77025620    -0.19500
C195        C  0.04022632  0.65010748  0.80295863     0.03400
H196        H  0.00623790  0.66841081  0.68918049     0.17200
H197        H  0.96557980  0.67469512  0.77728696     0.17300
C198        C  0.76993671  0.27925491  0.22782739     0.84600
N199        N  0.80308344  0.28612598  0.26629530    -0.73700
C200        C  0.80000386  0.25754891  0.30809199     0.87100
N201        N  0.76334872  0.22222274  0.31093902    -0.73600
C202        C  0.72990628  0.21522404  0.27305805     0.87200
N203        N  0.73370910  0.24371974  0.23167461    -0.75300
N204        N  0.88648203  0.26277685  0.43462703     0.01000
C205        C  0.86468889  0.28157586  0.47733961     0.03500
C206        C  0.86370978  0.24550083  0.51339839    -0.19300
C207        C  0.89159358  0.20602595  0.49535858    -0.19500
C208        C  0.90647953  0.21802871  0.44798498     0.03400
H209        H  0.85439967  0.25149242  0.55239983     0.17200
H210        H  0.90665094  0.17599535  0.51754166     0.17300
N211        N  0.75052340  0.35312749  0.09748410     0.01000
C212        C  0.77297517  0.33852669  0.05353954     0.03500
C213        C  0.73700912  0.32247977  0.02012520    -0.19300
C214        C  0.69116627  0.33250732  0.04166841    -0.19500
C215        C  0.70046643  0.35392235  0.08783582     0.03400
H216        H  0.74284634  0.31477156  0.98075753     0.17200
H217        H  0.65578572  0.33356106  0.02182285     0.17300
N218        N  0.63128166  0.09807481  0.27788358     0.01000
C219        C  0.61675912  0.07932868  0.32247178     0.03500
C220        C  0.63970408  0.03323403  0.32881329    -0.19300
C221        C  0.66111021  0.01954015  0.28422207    -0.19500
C222        C  0.65138831  0.05820402  0.25247504     0.03400
H223        H  0.63116075  0.00686670  0.35744599     0.17200
H224        H  0.67154040  0.98154750  0.27355942     0.17300
O225        O  0.91613842  0.54079780  0.98724731    -0.75700
O226        O  0.11948612  0.50353283  0.05844456    -0.75700
O227        O  0.98970328  0.56289416  0.07411087    -0.75700
O228        O  0.01094128  0.56437565  0.94765588    -0.75700
O229        O  0.03603608  0.51239749  0.11949754    -0.75800
O230        O  0.96179060  0.51498431  0.90708985    -0.75700
O231        O  0.09076119  0.56195258  0.00896140    -0.75700
O232        O  0.88803272  0.53924625  0.06437352    -0.75700
C233        C  0.88546097  0.55682454  0.02051125     1.14000
C234        C  0.11891433  0.54838174  0.04434462     1.13900
C235        C  0.00861074  0.55234607  0.11553825     1.14000
C236        C  0.98713307  0.55538447  0.90888187     1.13900
O237        O  0.98685567  0.41455319  0.94764203    -0.75700
O238        O  0.00653527  0.41237117  0.08031985    -0.75800
O239        O  0.91162996  0.44270211  0.03294661    -0.75700
O240        O  0.11842575  0.46616042  0.96840877    -0.75700
O241        O  0.08888363  0.40799757  0.01735533    -0.75800
O242        O  0.88777866  0.44724947  0.95458765    -0.75700
O243        O  0.03634769  0.46268489  0.90411492    -0.75700
O244        O  0.95692713  0.46749041  0.11507079    -0.75700
Co245      Co  0.95287462  0.47475453  0.97222990     1.51500
Co246      Co  0.06032598  0.45917890  0.06616129     1.51700
Co247      Co  0.95217655  0.50568640  0.04908279     1.51600
Co248      Co  0.06169519  0.51344148  0.95965635     1.51500
O249        O  0.01583848  0.48710713  0.01210940    -1.37600
C250        C  0.00722481  0.42425232  0.90674531     1.13900
C251        C  0.98177183  0.42648092  0.11780406     1.14000
C252        C  0.88218206  0.42913199  0.99790920     1.13900
C253        C  0.11665121  0.42109795  0.98127999     1.13900
N254        N  0.26890945  0.08781822  0.34877867     0.01000
C255        C  0.24488016  0.04657429  0.33111991     0.03500
C256        C  0.27945785  0.01105916  0.31472115    -0.19300
C257        C  0.32587203  0.02857082  0.32784087    -0.19500
C258        C  0.31798522  0.07385847  0.35256813     0.03400
H259        H  0.27160055  0.97251399  0.30473422     0.17200
H260        H  0.35951857  0.00542424  0.32972027     0.17300
C261        C  0.24677671  0.21729471  0.27268437     0.84600
N262        N  0.20842966  0.25176921  0.27723909    -0.73700
C263        C  0.20495193  0.29084445  0.24504987     0.87100
N264        N  0.24013680  0.29481856  0.20810273    -0.73600
C265        C  0.27863604  0.26074571  0.20331706     0.87200
N266        N  0.28147975  0.22212498  0.23558406    -0.75300
N267        N  0.08452125  0.38832805  0.26305772     0.01000
C268        C  0.03919812  0.37074013  0.24716163     0.03500
C269        C  0.00779136  0.36287331  0.28716098    -0.19300
C270        C  0.03184870  0.38180032  0.32812224    -0.19500
C271        C  0.07620083  0.40219839  0.31140659     0.03400
H272        H  0.96817460  0.35396506  0.28561545     0.17200
H273        H  0.01405531  0.38934814  0.36373573     0.17300
N274        N  0.36763414  0.26414948  0.07862010     0.01000
C275        C  0.38768711  0.30615021  0.05922013     0.03500
C276        C  0.37449926  0.30969019  0.00967851    -0.19300
C277        C  0.34924094  0.26703424  0.99713651    -0.19500
C278        C  0.34740148  0.23879316  0.03945514     0.03400
H279        H  0.38913375  0.33572136  0.98316426     0.17200
H280        H  0.34187446  0.25415550  0.95942011     0.17300
C281        C  0.77886261  0.27254720  0.75609078     0.84600
N282        N  0.73826120  0.27558813  0.78752701    -0.73700
C283        C  0.69819615  0.24446998  0.78145678     0.87100
N284        N  0.69901039  0.21002539  0.74299673    -0.73600
C285        C  0.73940452  0.20647356  0.71116894     0.87200
N286        N  0.77893198  0.23807488  0.71793394    -0.75300
N287        N  0.87920956  0.38708975  0.76953854     0.01000
C288        C  0.85672604  0.42763116  0.74883417     0.03500
C289        C  0.84927789  0.46523451  0.78383905    -0.19300
C290        C  0.87283397  0.45003839  0.82611510    -0.19500
C291        C  0.89436406  0.40374813  0.81554354     0.03400
H292        H  0.83741797  0.50329294  0.77666490     0.17200
H293        H  0.88204258  0.47462708  0.85711153     0.17300
N294        N  0.57209885  0.25199472  0.87222241     0.01000
C295        C  0.55719825  0.20847789  0.89256793     0.03500
C296        C  0.50905057  0.19719088  0.87791552    -0.19300
C297        C  0.49197736  0.23640659  0.85078320    -0.19500
C298        C  0.52906510  0.27203105  0.85302301     0.03400
H299        H  0.48525649  0.16890999  0.89375989     0.17200
H300        H  0.45255616  0.24324884  0.84293751     0.17300
N301        N  0.75091799  0.11874258  0.58424154     0.01000
C302        C  0.73288895  0.14133357  0.54283049     0.03500
C303        C  0.77110491  0.14804437  0.50879578    -0.19300
C304        C  0.81188540  0.12251154  0.52627616    -0.19500
C305        C  0.79780794  0.10227837  0.57101718     0.03400
H306        H  0.76664970  0.15901821  0.47041855     0.17200
H307        H  0.84391883  0.11084196  0.50364287     0.17300
C308        C  0.75528466  0.78291750  0.29133303     0.84600
N309        N  0.71622968  0.78228028  0.25813658    -0.73700
C310        C  0.71055399  0.74310912  0.22506397     0.87100
N311        N  0.74491477  0.70446997  0.22548410    -0.73600
C312        C  0.78425351  0.70459326  0.25834453     0.87200
N313        N  0.78898864  0.74397376  0.29101476    -0.75300
N314        N  0.77333324  0.90716702  0.38261575     0.01000
C315        C  0.73372065  0.92663143  0.40920874     0.03500
C316        C  0.72715916  0.97661544  0.39957513    -0.19300
C317        C  0.76485346  0.98953248  0.36792002    -0.19500
C318        C  0.79505413  0.94757748  0.36115800     0.03400
H319        H  0.70260399  0.00264847  0.41943235     0.17200
H320        H  0.77517658  0.02773942  0.36034279     0.17300
N321        N  0.88128141  0.58281226  0.25385737     0.01000
C322        C  0.89536546  0.56832042  0.20688826     0.03500
C323        C  0.87488542  0.52246372  0.19494234    -0.19300
C324        C  0.85440692  0.50461718  0.23772684    -0.19500
C325        C  0.86276916  0.54032604  0.27431673     0.03400
H326        H  0.88257977  0.49999562  0.16192960     0.17200
H327        H  0.84489645  0.46586480  0.24346466     0.17300
N328        N  0.60037677  0.73662483  0.11628575     0.01000
C329        C  0.58781658  0.68914209  0.10209936     0.03500
C330        C  0.60922614  0.67768439  0.05648509    -0.19300
C331        C  0.62523180  0.72168996  0.03724731    -0.19500
C332        C  0.61488482  0.75790146  0.07278972     0.03400
H333        H  0.60146154  0.64454610  0.03436921     0.17200
H334        H  0.63135829  0.72809566  0.99798380     0.17300
C335        C  0.24299941  0.74414289  0.32600427     0.84600
N336        N  0.28180325  0.77742578  0.32417026    -0.73700
C337        C  0.31908280  0.77180988  0.28892834     0.87100
N338        N  0.31668915  0.73283442  0.25529465    -0.73600
C339        C  0.27806630  0.69956789  0.25678229     0.87200
N340        N  0.24159942  0.70561560  0.29215634    -0.75300
N341        N  0.43784133  0.86669772  0.26606764     0.01000
C342        C  0.48532349  0.84966560  0.27545931     0.03500
C343        C  0.51262280  0.84544070  0.23171421    -0.19300
C344        C  0.48404792  0.86750132  0.19585866    -0.19500
C345        C  0.44022683  0.88407669  0.21900069     0.03400
H346        H  0.55280169  0.83870773  0.22855616     0.17200
H347        H  0.49861934  0.88012424  0.16055259     0.17300
N348        N  0.11498203  0.74151947  0.41022517     0.01000
C349        C  0.10331395  0.69385365  0.42194189     0.03500
C350        C  0.06346125  0.67779365  0.39315926    -0.19300
C351        C  0.04477012  0.71871393  0.36963767    -0.19500
C352        C  0.07391423  0.75818881  0.38506571     0.03400
H353        H  0.04193568  0.64450475  0.39886115     0.17200
H354        H  0.00720525  0.72127671  0.35434413     0.17300
N355        N  0.26228618  0.60100465  0.13944042     0.01000
C356        C  0.30604592  0.58511587  0.11782582     0.03500
C357        C  0.31328219  0.60954525  0.07347759    -0.19300
C358        C  0.26899966  0.63375746  0.06336590    -0.19500
C359        C  0.23661292  0.62327176  0.10200807     0.03400
H360        H  0.34206316  0.60089025  0.04587560     0.17200
H361        H  0.25827714  0.64624076  0.02673309     0.17300
O362        O  0.98449839  0.95953125  0.57369353    -0.75700
O363        O  0.06925113  0.07700131  0.57226241    -0.75700
O364        O  0.10134246  0.97398083  0.56638557    -0.75700
O365        O  0.92796453  0.03169768  0.55203601    -0.75700
O366        O  0.14959081  0.02433743  0.53075600    -0.75800
O367        O  0.89846145  0.96172140  0.51937535    -0.75700
O368        O  0.99640968  0.10718975  0.54821669    -0.75700
O369        O  0.03673570  0.90246488  0.55014495    -0.75700
C370        C  0.00051931  0.91602391  0.57828514     1.14000
C371        C  0.03310986  0.10659903  0.57868730     1.13900
C372        C  0.14394956  0.99089280  0.56265002     1.14000
C373        C  0.89186137  0.00094864  0.54701858     1.13900
O374        O  0.95938216  0.96698748  0.42987300    -0.75700
O375        O  0.10948882  0.05124288  0.43590033    -0.75800
O376        O  0.05331303  0.91450340  0.44291508    -0.82300
O377        O  0.99935319  0.08643803  0.43628554    -0.75700
O378        O  0.05311167  0.12714173  0.47836247    -0.75800
O379        O  0.98264972  0.89486937  0.47881898    -0.75700
O380        O  0.91700194  0.03214559  0.44523298    -0.75700
O381        O  0.13131111  0.97364835  0.45431519    -0.75700
Co382      Co  0.97064386  0.96806794  0.50223191     1.51500
Co383      Co  0.08901711  0.06408605  0.50369903     1.51700
Co384      Co  0.07804106  0.94611931  0.50321529     1.51600
Co385      Co  0.96785364  0.05888906  0.49530075     1.51500
O386        O  0.03201874  0.00806840  0.49449821    -1.37600
C387        C  0.92365759  0.99381561  0.41848467     1.13900
C388        C  0.13362486  0.01183220  0.42601528     1.14000
C389        C  0.01842049  0.88420513  0.44819318     1.13900
C390        C  0.01916258  0.12696488  0.44566968     1.13900
C391        C  0.02529180  0.83713406  0.42277371    -0.08800
C392        C  0.04654379  0.80199873  0.40269648    -0.10400
C393        C  0.26719759  0.63063685  0.18370033    -0.08800
C394        C  0.27287526  0.66054728  0.21819887    -0.10400
C395        C  0.16264468  0.74849881  0.38683330    -0.08800
C396        C  0.20130450  0.74996926  0.36181074    -0.10400
C397        C  0.36039022  0.80807455  0.28551112    -0.08800
C398        C  0.39580767  0.83642595  0.27874779    -0.10400
C399        C  0.84812338  0.95764850  0.36681562    -0.08800
C400        C  0.88609047  0.97524271  0.38438219    -0.10400
C401        C  0.66855526  0.74283241  0.18875608    -0.08800
C402        C  0.63533154  0.74113886  0.15675702    -0.10400
C403        C  0.85070908  0.62710905  0.25814061    -0.08800
C404        C  0.82115827  0.66288771  0.25877249    -0.10400
C405        C  0.76197894  0.82545584  0.32631534    -0.08800
C406        C  0.76804172  0.86189179  0.35412201    -0.10400
C407        C  0.81668587  0.05190210  0.57957311    -0.08800
C408        C  0.84480728  0.01692432  0.56960000    -0.10400
C409        C  0.74005058  0.17074494  0.66872489    -0.08800
C410        C  0.74386685  0.14432161  0.63095732    -0.10400
C411        C  0.65440413  0.24875224  0.81543437    -0.08800
C412        C  0.61720309  0.25157406  0.84286581    -0.10400
C413        C  0.82019958  0.30841434  0.76116874    -0.08800
C414        C  0.85087600  0.34220573  0.76521423    -0.10400
C415        C  0.31461566  0.26348977  0.16198776    -0.08800
C416        C  0.34189925  0.26426075  0.12519448    -0.10400
C417        C  0.16333815  0.32765254  0.24924264    -0.08800
C418        C  0.12783183  0.35728535  0.25374548    -0.10400
C419        C  0.20062689  0.02863710  0.35638340    -0.08800
C420        C  0.16903532  0.01480912  0.38549804    -0.10400
C421        C  0.25014747  0.17392073  0.30527787    -0.08800
C422        C  0.25723104  0.13511001  0.32788420    -0.10400
C423        C  0.94478991  0.39558637  0.83649376    -0.08800
C424        C  0.98142780  0.40370015  0.86294359    -0.10400
C425        C  0.98167798  0.57295282  0.15864405    -0.08800
C426        C  0.94454781  0.57890583  0.18508840    -0.10400
C427        C  0.99526081  0.40428921  0.16483834    -0.08800
C428        C  0.01600189  0.38693890  0.20105467    -0.10400
C429        C  0.15325568  0.58289237  0.06785906    -0.08800
C430        C  0.18758966  0.60533834  0.08720484    -0.10400
C431        C  0.84440049  0.39289261  0.01107760    -0.08800
C432        C  0.81455600  0.36599410  0.03192900    -0.10400
C433        C  0.95417774  0.19777047  0.43026859    -0.08800
C434        C  0.99132192  0.17113282  0.43182698    -0.10400
C435        C  0.69111862  0.17659141  0.27606305    -0.08800
C436        C  0.66102055  0.14217616  0.27740124    -0.10400
C437        C  0.76537452  0.33208112  0.14368405    -0.08800
C438        C  0.77137984  0.31006867  0.18297314    -0.10400
C439        C  0.83482374  0.26452621  0.35026827    -0.08800
C440        C  0.86054595  0.26597854  0.38822238    -0.10400
C441        C  0.99939742  0.58630728  0.86685456    -0.08800
C442        C  0.01964470  0.61544540  0.83893843    -0.10400
C443        C  0.20591671  0.92405567  0.59683005    -0.08800
C444        C  0.18411570  0.96201533  0.58457441    -0.10400
C445        C  0.16864437  0.68919371  0.79769287    -0.08800
C446        C  0.13018763  0.66468015  0.79355008    -0.10400
C447        C  0.26467042  0.83792971  0.66696741    -0.08800
C448        C  0.26136353  0.81531274  0.70594232    -0.10400
C449        C  0.32968628  0.75223593  0.86214468    -0.08800
C450        C  0.35953652  0.75391569  0.89656913    -0.10400
C451        C  0.56843015  0.83748104  0.03595418    -0.08800
C452        C  0.59083411  0.80270800  0.05428818    -0.10400
C453        C  0.36736951  0.83821180  0.98107917    -0.08800
C454        C  0.37885630  0.88042852  0.99290582    -0.10400
C455        C  0.63292554  0.04486208  0.20367016    -0.08800
C456        C  0.60809508  0.03249941  0.16805784    -0.10400
C457        C  0.42412853  0.97425453  0.18627888    -0.08800
C458        C  0.42382206  0.93432778  0.20695900    -0.10400
C459        C  0.35527618  0.18572493  0.03372180    -0.08800
C460        C  0.37681010  0.14625303  0.02701882    -0.10400
C461        C  0.56709266  0.17041892  0.98043265    -0.08800
C462        C  0.57140962  0.19280817  0.94187752    -0.10400
C463        C  0.03996108  0.14660608  0.61433978    -0.08800
C464        C  0.05325640  0.18439436  0.63553739    -0.10400
C465        C  0.42595120  0.04188831  0.81471175    -0.08800
C466        C  0.43209325  0.00826579  0.84413382    -0.10400
C467        C  0.14813224  0.38712941  0.95233401    -0.08800
C468        C  0.17593037  0.38229903  0.91657886    -0.10400
C469        C  0.19372500  0.24647140  0.66762686    -0.08800
C470        C  0.15414585  0.25172196  0.64464089    -0.10400
C471        C  0.34784644  0.16603659  0.73740320    -0.08800
C472        C  0.38299386  0.13580393  0.74093840    -0.10400
C473        C  0.27691705  0.32212326  0.81108940    -0.08800
C474        C  0.26976442  0.35783216  0.83960364    -0.10400
C475        C  0.84994366  0.59467321  0.00402556    -0.08800
C476        C  0.82336040  0.62191415  0.97904619    -0.10400
C477        C  0.93049814  0.85113008  0.59630117    -0.08800
C478        C  0.96626979  0.87911553  0.59756322    -0.10400
C479        C  0.77401310  0.68881447  0.82819691    -0.08800
C480        C  0.77366895  0.66202549  0.86481659    -0.10400
C481        C  0.82605569  0.75907940  0.66686446    -0.08800
C482        C  0.85250994  0.76401529  0.62968222    -0.10400
C483        C  0.62715019  0.95078123  0.84619418    -0.08800
C484        C  0.61131715  0.96539004  0.88644626    -0.10400
C485        C  0.68037094  0.83014037  0.75812252    -0.08800
C486        C  0.64968597  0.86468581  0.76122926    -0.10400
C487        C  0.43607915  0.32679340  0.07391965    -0.08800
C488        C  0.47478875  0.35057231  0.07099219    -0.10400
C489        C  0.49168714  0.35455239  0.89510577    -0.08800
C490        C  0.51021265  0.31973116  0.87180350    -0.10400
C491        C  0.64000176  0.43022326  0.09578665    -0.08800
C492        C  0.66817438  0.39533421  0.10339620    -0.10400
C493        C  0.65329880  0.55654930  0.91205491    -0.08800
C494        C  0.68412913  0.58857498  0.90439061    -0.10400
C495        C  0.53688507  0.66951889  0.10659607    -0.08800
C496        C  0.50148937  0.64349009  0.09416806    -0.10400
C497        C  0.48338164  0.65149027  0.92863624    -0.08800
C498        C  0.45256708  0.68539090  0.93175808    -0.10400
C499        C  0.32259658  0.53297817  0.11781978    -0.08800
C500        C  0.34440334  0.49706838  0.09906481    -0.10400
C501        C  0.33930289  0.49688097  0.90311430    -0.08800
C502        C  0.30898073  0.47324452  0.87845113    -0.10400
C503        C  0.07913151  0.48904743  0.35727753    -0.08800
C504        C  0.08700622  0.45215650  0.33102273    -0.10400
C505        C  0.90183850  0.50289550  0.35698119    -0.08800
C506        C  0.88095655  0.52158655  0.32156113    -0.10400
C507        C  0.08454564  0.57576658  0.66325034    -0.08800
C508        C  0.09125658  0.60872101  0.69363247    -0.10400
C509        C  0.86794071  0.44262346  0.69863551    -0.08800
C510        C  0.88760839  0.46296214  0.66386147    -0.10400
C511        C  0.07707742  0.35682078  0.53382809    -0.08800
C512        C  0.08860621  0.32961959  0.56812070    -0.10400
C513        C  0.89598643  0.36692669  0.51662775    -0.08800
C514        C  0.87705526  0.33081806  0.49659793    -0.10400
C515        C  0.88323979  0.70328551  0.52443377    -0.08800
C516        C  0.90264158  0.66526887  0.50727284    -0.10400
C517        C  0.08621608  0.65233346  0.50714415    -0.08800
C518        C  0.10259393  0.67665938  0.47303392    -0.10400
C519        C  0.51308682  0.07992537  0.64975875    -0.08800
C520        C  0.49293887  0.10281296  0.68376245    -0.10400
C521        C  0.53496642  0.90038737  0.65109832    -0.08800
C522        C  0.56356533  0.90145838  0.68630348    -0.10400
C523        C  0.36728770  0.06639664  0.43608585    -0.08800
C524        C  0.34468054  0.07944456  0.39931188    -0.10400
C525        C  0.37670850  0.86773451  0.55135813    -0.08800
C526        C  0.34285264  0.84441622  0.56954637    -0.10400
C527        C  0.56463530  0.08229030  0.34041723    -0.08800
C528        C  0.52632970  0.07019826  0.36222363    -0.10400
C529        C  0.51277201  0.86937757  0.31779552    -0.08800
C530        C  0.53308444  0.89244044  0.35116360    -0.10400
C531        C  0.68613162  0.12505828  0.52137078    -0.08800
C532        C  0.65428521  0.09979914  0.50164362    -0.10400
C533        C  0.71377763  0.90797309  0.45581402    -0.08800
C534        C  0.68623960  0.91266868  0.49197674    -0.10400
loop_ 
_geom_bond_atom_site_label_1 
_geom_bond_atom_site_label_2 
_geom_bond_distance 
_geom_bond_site_symmetry_2 
_ccdc_geom_bond_type 
O1            C9   1.277       .  A
O1          Co21   2.048   1_565  S
O2           C10   1.268       .  A
O2          Co22   1.995   1_565  S
O3           C11   1.262       .  A
O3          Co23   1.949       .  S
O4           C12   1.243       .  A
O4          Co24   1.946       .  S
O5           C11   1.293       .  A
O5          Co22   2.083   1_565  S
O6           C12   1.273       .  A
O6          Co21   2.063   1_565  S
O7           C10   1.267       .  A
O7          Co24   1.990       .  S
O8            C9   1.278       .  A
O8          Co23   1.949       .  S
C9          C534   1.445       .  S
C10         C525   1.437       .  S
C11         C521   1.450       .  S
C12         C530   1.437       .  S
O13          C26   1.251       .  A
O13         Co21   1.940       .  S
O14          C27   1.247       .  A
O14         Co22   1.946       .  S
O15          C28   1.278       .  A
O15         Co23   2.065   1_545  S
O16          C29   1.261   1_565  A
O16         Co24   1.985       .  S
O17          C29   1.267       .  A
O17         Co22   2.009       .  S
O18          C28   1.268       .  A
O18         Co21   1.921       .  S
O19          C26   1.293       .  A
O19         Co24   2.106   1_545  S
O20          C27   1.276       .  A
O20         Co23   2.050   1_545  S
Co21         O25   1.988   1_545  S
Co22         O25   1.996   1_545  S
Co23         O25   2.018       .  S
Co24         O25   2.014       .  S
C26         C528   1.455       .  S
C27         C519   1.435       .  S
C28         C532   1.435       .  S
C29         C523   1.446       .  S
O30          C38   1.248       .  A
O30         Co50   1.951       .  S
O31          C39   1.256       .  A
O31         Co51   1.934       .  S
O32          C40   1.277       .  A
O32         Co52   2.046   1_655  S
O33          C41   1.265       .  A
O33         Co53   1.987   1_655  S
O34          C40   1.275       .  A
O34         Co51   1.948       .  S
O35          C41   1.271       .  A
O35         Co50   2.002       .  S
O36          C39   1.292       .  A
O36         Co53   2.087   1_655  S
O37          C38   1.275       .  A
O37         Co52   2.059   1_655  S
C38         C516   1.450       .  S
C39         C513   1.441       .  S
C40         C505   1.448       .  S
C41         C510   1.440       .  S
O42          C55   1.263       .  A
O42         Co50   1.980   1_455  S
O43          C56   1.274       .  A
O43         Co51   2.039   1_455  S
O44          C57   1.261       .  A
O44         Co52   1.942       .  S
O45          C58   1.245       .  A
O45         Co53   1.949       .  S
O46          C58   1.277       .  A
O46         Co51   2.076   1_455  S
O47          C57   1.294       .  A
O47         Co50   2.091   1_455  S
O48          C55   1.266       .  A
O48         Co53   1.997       .  S
O49          C56   1.274       .  A
O49         Co52   1.960       .  S
Co50         O54   2.003       .  S
Co51         O54   2.016       .  S
Co52         O54   2.019   1_455  S
Co53         O54   2.006   1_455  S
C55         C507   1.432       .  S
C56         C503   1.447       .  S
C57         C517   1.445       .  S
C58         C511   1.458       .  S
O59          C67   1.277       .  A
O59         Co79   2.046   1_554  S
O60          C68   1.263       .  A
O60         Co80   1.983   1_554  S
O61          C69   1.251       .  A
O61         Co81   1.940       .  S
O62          C70   1.246       .  A
O62         Co82   1.952       .  S
O63          C69   1.291       .  A
O63         Co80   2.098   1_554  S
O64          C70   1.278       .  A
O64         Co79   2.077   1_554  S
O65          C68   1.269       .  A
O65         Co82   2.007       .  S
O66          C67   1.275       .  A
O66         Co81   1.946       .  S
C67         C500   1.442       .  S
C68         C491   1.441       .  S
C69         C488   1.451       .  S
C70         C496   1.455       .  S
O71          C84   1.260       .  A
O71         Co79   1.944       .  S
O72          C85   1.246       .  A
O72         Co80   1.946       .  S
O73          C86   1.275       .  A
O73         Co81   2.050   1_556  S
O74          C87   1.267       .  A
O74         Co82   1.993   1_556  S
O75          C87   1.270       .  A
O75         Co80   2.003       .  S
O76          C86   1.278       .  A
O76         Co79   1.950       .  S
O77          C84   1.293       .  A
O77         Co82   2.090   1_556  S
O78          C85   1.277       .  A
O78         Co81   2.062   1_556  S
Co79         O83   2.018       .  S
Co80         O83   2.014       .  S
Co81         O83   2.001   1_554  S
Co82         O83   1.996   1_554  S
C84         C497   1.449       .  S
C85         C489   1.438       .  S
C86         C501   1.453       .  S
C87         C493   1.444       .  S
N88          C92   1.365       .  A
N88          C89   1.368       .  A
N88         C486   1.426       .  S
C89         C483   1.449       .  S
C89          C90   1.380       .  A
C90          C91   1.362       .  A
C90          H93   1.083   1_565  S
C91          C92   1.376       .  A
C91          H94   1.080   1_565  S
C92         C522   1.452       .  S
C95         C481   1.474       .  S
C95          N96   1.369       .  A
C95         N100   1.368       .  A
N96          C97   1.369       .  A
C97         C479   1.472       .  S
C97          N98   1.367       .  A
N98          C99   1.365       .  A
C99         C485   1.471       .  S
C99         N100   1.366       .  A
N101        C105   1.367       .  A
N101        C102   1.361       .  A
N101        C482   1.428       .  S
C102        C477   1.456       .  S
C102        C103   1.381       .  A
C103        C104   1.367       .  A
C103        H106   1.081       .  S
C104        C105   1.379       .  A
C104        H107   1.083       .  S
C105        C515   1.455       .  S
N108        C112   1.355       .  A
N108        C109   1.374       .  A
N108        C480   1.427       .  S
C109        C476   1.463       .  S
C109        C110   1.379       .  A
C110        C111   1.363       .  A
C110        H113   1.084   1_556  S
C111        C112   1.367       .  A
C111        H114   1.069       .  S
C112        C494   1.448       .  S
C115        C471   1.482       .  S
C115        N116   1.370       .  A
C115        N120   1.376       .  A
N116        C117   1.366       .  A
C117        C473   1.468       .  S
C117        N118   1.362       .  A
N118        C119   1.362       .  A
C119        C469   1.476       .  S
C119        N120   1.374       .  A
N121        C125   1.358       .  A
N121        C122   1.370       .  A
N121        C474   1.425       .  S
C122        C502   1.461       .  S
C122        C123   1.379       .  A
C123        C124   1.367       .  A
C123        H126   1.083       .  S
C124        C125   1.380       .  A
C124        H127   1.083       .  S
C125        C468   1.452       .  S
N128        C132   1.365       .  A
N128        C129   1.364       .  A
N128        C472   1.435       .  S
C129        C465   1.458       .  S
C129        C130   1.378       .  A
C130        C131   1.362       .  A
C130        H133   1.084       .  S
C131        C132   1.377       .  A
C131        H134   1.084       .  S
C132        C520   1.444       .  S
N135        C139   1.360       .  A
N135        C136   1.366       .  A
N135        C470   1.430       .  S
C136        C512   1.464       .  S
C136        C137   1.383       .  A
C137        C138   1.367       .  A
C137        H140   1.084       .  S
C138        C139   1.377       .  A
C138        H141   1.083   1_455  S
C139        C464   1.442       .  S
O142        C150   1.274   1_545  A
O142       Co162   1.999       .  S
O143        C151   1.227   1_565  A
O143       Co163   1.946       .  S
O144        C152   1.246   1_556  A
O144       Co164   1.980       .  S
O145        C153   1.249       .  A
O145       Co165   1.941       .  S
O146        C152   1.264       .  A
O146       Co163   2.028       .  S
O147        C153   1.275   1_556  A
O147       Co162   2.047       .  S
O148        C151   1.255       .  A
O148       Co165   2.059       .  S
O149        C150   1.285       .  A
O149       Co164   1.991       .  S
C150        C466   1.448   1_565  S
C151        C457   1.442   1_545  S
C152        C454   1.442   1_554  S
C153        C460   1.433       .  S
O154        C167   1.232   1_556  A
O154       Co162   1.950       .  S
O155        C168   1.250       .  A
O155       Co163   1.941       .  S
O156        C169   1.233       .  A
O156       Co164   1.974       .  S
O157        C170   1.254       .  A
O157       Co165   1.931       .  S
O158        C170   1.283   1_565  A
O158       Co163   2.066       .  S
O159        C169   1.252   1_545  A
O159       Co162   2.028       .  S
O160        C167   1.260       .  A
O160       Co165   2.053       .  S
O161        C168   1.283   1_556  A
O161       Co164   2.063       .  S
Co162       O166   2.153   1_556  S
Co163       O166   2.059   1_565  S
Co164       O166   2.004   1_566  S
Co165       O166   2.174       .  S
C167        C461   1.441   1_554  S
C168        C451   1.439       .  S
C169        C484   1.448       .  S
C170        C456   1.437       .  S
C171        C449   1.463       .  S
C171        N172   1.364       .  A
C171        N176   1.368       .  A
N172        C173   1.363       .  A
C173        C448   1.462       .  S
C173        N174   1.364       .  A
N174        C175   1.365       .  A
C175        C445   1.468       .  S
C175        N176   1.366       .  A
N177        C181   1.364       .  A
N177        C178   1.362       .  A
N177        C450   1.421       .  S
C178        C453   1.444       .  S
C178        C179   1.379   1_556  A
C179        C180   1.365       .  A
C179        H182   1.083       .  S
C180        C181   1.377   1_554  A
C180        H183   1.078       .  S
C181        C498   1.453       .  S
N184        C188   1.357       .  A
N184        C185   1.358       .  A
N184        C447   1.421       .  S
C185        C443   1.454       .  S
C185        C186   1.380       .  A
C186        C187   1.369       .  A
C186        H189   1.083       .  S
C187        C188   1.381       .  A
C187        H190   1.083       .  S
C188        C526   1.441       .  S
N191        C195   1.367       .  A
N191        C192   1.351       .  A
N191        C446   1.424       .  S
C192        C508   1.439       .  S
C192        C193   1.379       .  A
C193        C194   1.368       .  A
C193        H196   1.083       .  S
C194        C195   1.381       .  A
C194        H197   1.083   1_455  S
C195        C442   1.460       .  S
C198        C438   1.473       .  S
C198        N199   1.372       .  A
C198        N203   1.365       .  A
N199        C200   1.372       .  A
C200        C439   1.477       .  S
C200        N201   1.368       .  A
N201        C202   1.366       .  A
C202        C435   1.471       .  S
C202        N203   1.363       .  A
N204        C208   1.359       .  A
N204        C205   1.367       .  A
N204        C440   1.431       .  S
C205        C514   1.448       .  S
C205        C206   1.380       .  A
C206        C207   1.363       .  A
C206        H209   1.084       .  S
C207        C208   1.375       .  A
C207        H210   1.083       .  S
C208        C433   1.448       .  S
N211        C215   1.357       .  A
N211        C212   1.368       .  A
N211        C437   1.428       .  S
C212        C432   1.458       .  S
C212        C213   1.381       .  A
C213        C214   1.368       .  A
C213        H216   1.083   1_554  S
C214        C215   1.381       .  A
C214        H217   1.083       .  S
C215        C492   1.447       .  S
N218        C222   1.358       .  A
N218        C219   1.363       .  A
N218        C436   1.428       .  S
C219        C527   1.465       .  S
C219        C220   1.383       .  A
C220        C221   1.365       .  A
C220        H223   1.078       .  S
C221        C222   1.375       .  A
C221        H224   1.083   1_545  S
C222        C455   1.442       .  S
O225        C233   1.272   1_556  A
O225       Co245   2.041       .  S
O226        C234   1.264       .  A
O226       Co246   1.993       .  S
O227        C235   1.258   1_655  A
O227       Co247   1.947       .  S
O228        C236   1.242   1_455  A
O228       Co248   1.938       .  S
O229        C235   1.293       .  A
O229       Co246   2.095       .  S
O230        C236   1.280       .  A
O230       Co245   2.085       .  S
O231        C234   1.268       .  A
O231       Co248   2.000   1_554  S
O232        C233   1.278       .  A
O232       Co247   1.956       .  S
C233        C475   1.453       .  S
C234        C429   1.445       .  S
C235        C425   1.454   1_455  S
C236        C441   1.450       .  S
O237        C250   1.255   1_655  A
O237       Co245   1.940       .  S
O238        C251   1.250   1_455  A
O238       Co246   1.952       .  S
O239        C252   1.277   1_554  A
O239       Co247   2.051       .  S
O240        C253   1.261       .  A
O240       Co248   1.974       .  S
O241        C253   1.272   1_554  A
O241       Co246   2.017       .  S
O242        C252   1.277       .  A
O242       Co245   1.945       .  S
O243        C250   1.297       .  A
O243       Co248   2.116       .  S
O244        C251   1.277       .  A
O244       Co247   2.066       .  S
Co245       O249   2.018   1_656  S
Co246       O249   2.025       .  S
Co247       O249   2.010   1_655  S
Co248       O249   2.001   1_556  S
C250        C424   1.466   1_455  S
C251        C427   1.450       .  S
C252        C431   1.451   1_556  S
C253        C467   1.442       .  S
N254        C258   1.357       .  A
N254        C255   1.360       .  A
N254        C422   1.425       .  S
C255        C419   1.446       .  S
C255        C256   1.379       .  A
C256        C257   1.370       .  A
C256        H259   1.083   1_545  S
C257        C258   1.384       .  A
C257        H260   1.084       .  S
C258        C524   1.451       .  S
C261        C421   1.468       .  S
C261        N262   1.370       .  A
C261        N266   1.363       .  A
N262        C263   1.371       .  A
C263        C417   1.475       .  S
C263        N264   1.367       .  A
N264        C265   1.366       .  A
C265        C415   1.465       .  S
C265        N266   1.362       .  A
N267        C271   1.360       .  A
N267        C268   1.366       .  A
N267        C418   1.430       .  S
C268        C428   1.457       .  S
C268        C269   1.378       .  A
C269        C270   1.367       .  A
C269        H272   1.083   1_455  S
C270        C271   1.381       .  A
C270        H273   1.079       .  S
C271        C504   1.459       .  S
N274        C278   1.357       .  A
N274        C275   1.360       .  A
N274        C416   1.423       .  S
C275        C487   1.459       .  S
C275        C276   1.382       .  A
C276        C277   1.368   1_554  A
C276        H279   1.079   1_554  S
C277        C278   1.377   1_556  A
C277        H280   1.083       .  S
C278        C459   1.438       .  S
C281        C413   1.472       .  S
C281        N282   1.368       .  A
C281        N286   1.365       .  A
N282        C283   1.367       .  A
C283        C411   1.478       .  S
C283        N284   1.371       .  A
N284        C285   1.370       .  A
C285        C409   1.473       .  S
C285        N286   1.366       .  A
N287        C291   1.369       .  A
N287        C288   1.361       .  A
N287        C414   1.427       .  S
C288        C509   1.444       .  S
C288        C289   1.376       .  A
C289        C290   1.365       .  A
C289        H292   1.083       .  S
C290        C291   1.382       .  A
C290        H293   1.082       .  S
C291        C423   1.472       .  S
N294        C298   1.365       .  A
N294        C295   1.357       .  A
N294        C412   1.431       .  S
C295        C462   1.447       .  S
C295        C296   1.376       .  A
C296        C297   1.363       .  A
C296        H299   1.083       .  S
C297        C298   1.379       .  A
C297        H300   1.084       .  S
C298        C490   1.446       .  S
N301        C305   1.360       .  A
N301        C302   1.362       .  A
N301        C410   1.428       .  S
C302        C531   1.441       .  S
C302        C303   1.379       .  A
C303        C304   1.364       .  A
C303        H306   1.084       .  S
C304        C305   1.379       .  A
C304        H307   1.083       .  S
C305        C407   1.455       .  S
C308        C405   1.475       .  S
C308        N309   1.372       .  A
C308        N313   1.366       .  A
N309        C310   1.371       .  A
C310        C401   1.486       .  S
C310        N311   1.371       .  A
N311        C312   1.371       .  A
C312        C404   1.477       .  S
C312        N313   1.365       .  A
N314        C318   1.367       .  A
N314        C315   1.362       .  A
N314        C406   1.429       .  S
C315        C533   1.456       .  S
C315        C316   1.376       .  A
C316        C317   1.362       .  A
C316        H319   1.080   1_565  S
C317        C318   1.381       .  A
C317        H320   1.084   1_565  S
C318        C399   1.447       .  S
N321        C325   1.367       .  A
N321        C322   1.362       .  A
N321        C403   1.431       .  S
C322        C426   1.462       .  S
C322        C323   1.380       .  A
C323        C324   1.366       .  A
C323        H326   1.079       .  S
C324        C325   1.378       .  A
C324        H327   1.083       .  S
C325        C506   1.456       .  S
N328        C332   1.365       .  A
N328        C329   1.365       .  A
N328        C402   1.437       .  S
C329        C495   1.463       .  S
C329        C330   1.376       .  A
C330        C331   1.366       .  A
C330        H333   1.080       .  S
C331        C332   1.372       .  A
C331        H334   1.083   1_554  S
C332        C452   1.449       .  S
C335        C396   1.469       .  S
C335        N336   1.371       .  A
C335        N340   1.362       .  A
N336        C337   1.372       .  A
C337        C397   1.477       .  S
C337        N338   1.369       .  A
N338        C339   1.367       .  A
C339        C394   1.465       .  S
C339        N340   1.360       .  A
N341        C345   1.356       .  A
N341        C342   1.363       .  A
N341        C398   1.431       .  S
C342        C529   1.448       .  S
C342        C343   1.380       .  A
C343        C344   1.368       .  A
C343        H346   1.084       .  S
C344        C345   1.382       .  A
C344        H347   1.084       .  S
C345        C458   1.451       .  S
N348        C352   1.362       .  A
N348        C349   1.358       .  A
N348        C395   1.427       .  S
C349        C518   1.455       .  S
C349        C350   1.382       .  A
C350        C351   1.364       .  A
C350        H353   1.077       .  S
C351        C352   1.375       .  A
C351        H354   1.083       .  S
C352        C392   1.443       .  S
N355        C359   1.360       .  A
N355        C356   1.358       .  A
N355        C393   1.423       .  S
C356        C499   1.457       .  S
C356        C357   1.383       .  A
C357        C358   1.368       .  A
C357        H360   1.083       .  S
C358        C359   1.380       .  A
C358        H361   1.083       .  S
C359        C430   1.448       .  S
O362        C370   1.243   1_655  A
O362       Co382   1.973       .  S
O363        C371   1.247       .  A
O363       Co383   1.936       .  S
O364        C372   1.229       .  A
O364       Co384   1.947       .  S
O365        C373   1.277       .  A
O365       Co385   2.004       .  S
O366        C372   1.260   1_545  A
O366       Co383   2.062       .  S
O367        C373   1.284   1_565  A
O367       Co382   1.981       .  S
O368        C371   1.276   1_655  A
O368       Co385   2.056       .  S
O369        C370   1.266       .  A
O369       Co384   2.056       .  S
C370        C478   1.451   1_455  S
C371        C463   1.436       .  S
C372        C444   1.445       .  S
C373        C408   1.444       .  S
O374        C387   1.227       .  A
O374       Co382   1.967       .  S
O375        C388   1.251       .  A
O375       Co383   1.921       .  S
O376        C389   1.248       .  A
O376       Co384   1.934       .  S
O377        C390   1.233   1_655  A
O377       Co385   1.950       .  S
O378        C390   1.262       .  A
O378       Co383   2.057       .  S
O379        C389   1.280   1_655  A
O379       Co382   2.066       .  S
O380        C387   1.251   1_545  A
O380       Co385   2.037       .  S
O381        C388   1.286   1_565  A
O381       Co384   2.077       .  S
Co382       O386   1.973   1_665  S
Co383       O386   2.155       .  S
Co384       O386   2.066   1_565  S
Co385       O386   2.168   1_655  S
C387        C400   1.444       .  S
C388        C420   1.439       .  S
C389        C391   1.430       .  S
C390        C434   1.442   1_455  S
C391        C392   1.208       .  T
C393        C394   1.224       .  T
C395        C396   1.226       .  T
C397        C398   1.230       .  T
C399        C400   1.212       .  T
C401        C402   1.236       .  T
C403        C404   1.231       .  T
C405        C406   1.229       .  T
C407        C408   1.216       .  T
C409        C410   1.228       .  T
C411        C412   1.231       .  T
C413        C414   1.228       .  T
C415        C416   1.223       .  T
C417        C418   1.229       .  T
C419        C420   1.210       .  T
C421        C422   1.225       .  T
C423        C424   1.227       .  T
C425        C426   1.220       .  T
C427        C428   1.217   1_655  T
C429        C430   1.212       .  T
C431        C432   1.218       .  T
C433        C434   1.212       .  T
C435        C436   1.227       .  T
C437        C438   1.228       .  T
C439        C440   1.230       .  T
C441        C442   1.219   1_655  T
C443        C444   1.215       .  T
C445        C446   1.225       .  T
C447        C448   1.222       .  T
C449        C450   1.222       .  T
C451        C452   1.212       .  T
C453        C454   1.210       .  T
C455        C456   1.208       .  T
C457        C458   1.213       .  T
C459        C460   1.205       .  T
C461        C462   1.211       .  T
C463        C464   1.208       .  T
C465        C466   1.218       .  T
C467        C468   1.213       .  T
C469        C470   1.230       .  T
C471        C472   1.234       .  T
C473        C474   1.225       .  T
C475        C476   1.221   1_554  T
C477        C478   1.217       .  T
C479        C480   1.228       .  T
C481        C482   1.228       .  T
C483        C484   1.214       .  T
C485        C486   1.227       .  T
C487        C488   1.219       .  T
C489        C490   1.211       .  T
C491        C492   1.211       .  T
C493        C494   1.212       .  T
C495        C496   1.221       .  T
C497        C498   1.216       .  T
C499        C500   1.216       .  T
C501        C502   1.220       .  T
C503        C504   1.217       .  T
C505        C506   1.216       .  T
C507        C508   1.205       .  T
C509        C510   1.209       .  T
C511        C512   1.222       .  T
C513        C514   1.212       .  T
C515        C516   1.217       .  T
C517        C518   1.215       .  T
C519        C520   1.209       .  T
C521        C522   1.216       .  T
C523        C524   1.213       .  T
C525        C526   1.207       .  T
C527        C528   1.222       .  T
C529        C530   1.211       .  T
C531        C532   1.207       .  T
C533        C534   1.217       .  T
