geometry optimzed in LAMMPS
_audit_creation_date              2020-11-30 
_audit_creation_method            'lammps2cif' 
_symmetry_space_group_name_H-M    'P1' 
_symmetry_Int_Tables_number       1 
_symmetry_cell_setting            triclinic 
loop_ 
_symmetry_equiv_pos_as_xyz 
  x,y,z 
_cell_length_a                    25.44584798 
_cell_length_b                    26.701367962636986 
_cell_length_c                    26.50463848169763 
_cell_angle_alpha                 90.34040440207751 
_cell_angle_beta                  88.67193942966311 
_cell_angle_gamma                 89.12810942586292 
loop_ 
_atom_site_label 
_atom_site_type_symbol 
_atom_site_fract_x 
_atom_site_fract_y 
_atom_site_fract_z 
_atom_site_charge 
O1          O  0.32667367  0.66613623  0.75025748    -0.79300
O2          O  0.32452924  0.82408155  0.75094966    -0.79300
O3          O  0.26312770  0.70041771  0.64845225    -0.79300
O4          O  0.27010107  0.79064312  0.85900118    -0.79300
O5          O  0.32644856  0.74573249  0.68045323    -0.79400
O6          O  0.33295362  0.74585985  0.82033228    -0.79300
O7          O  0.25791043  0.85873757  0.79214389    -0.79300
O8          O  0.25730533  0.63267161  0.71719806    -0.79300
C9          C  0.30566345  0.63006028  0.72742581     1.10400
C10         C  0.30572147  0.85975049  0.77757943     1.10300
C11         C  0.31135484  0.71292154  0.64973633     1.10400
C12         C  0.31842227  0.77804820  0.85313969     1.10300
O13         O  0.23680960  0.71014542  0.86796120    -0.79300
O14         O  0.22590898  0.78171194  0.64447378    -0.79400
O15         O  0.16073625  0.67432193  0.76077363    -0.79300
O16         O  0.15841736  0.81756355  0.76073140    -0.79300
O17         O  0.21993400  0.85150826  0.71274621    -0.79300
O18         O  0.22741650  0.64104947  0.80108277    -0.79300
O19         O  0.16754608  0.74646467  0.83602071    -0.79300
O20         O  0.16083750  0.74494305  0.68357069    -0.79300
Co21       Co  0.28046527  0.69551416  0.80489246     1.51500
Co22       Co  0.27421306  0.79626934  0.70196240     1.51700
Co23       Co  0.21099267  0.69334287  0.70675897     1.51600
Co24       Co  0.21371925  0.79820624  0.80749186     1.51500
O25         O  0.24488067  0.74577149  0.75520222    -1.41200
C26         C  0.18828461  0.72171717  0.87079181     1.10300
C27         C  0.17713734  0.77238402  0.64820835     1.10400
C28         C  0.17847639  0.64311161  0.79208999     1.10400
C29         C  0.17198380  0.84895731  0.72767680     1.10300
O30         O  0.73172437  0.18697334  0.66563552    -0.79300
O31         O  0.77133488  0.15635119  0.80544418    -0.79300
O32         O  0.85045751  0.21722977  0.71238274    -0.79300
O33         O  0.63512354  0.27287239  0.84879995    -0.79300
O34         O  0.87477155  0.19223524  0.79013330    -0.79400
O35         O  0.62833194  0.21909911  0.78249909    -0.79300
O36         O  0.70833548  0.19919340  0.84782779    -0.79300
O37         O  0.81234516  0.21684773  0.67915056    -0.79300
C38         C  0.78026733  0.19006498  0.65392099     1.10400
C39         C  0.73453827  0.15866357  0.83926127     1.10300
C40         C  0.88303833  0.19327017  0.74233944     1.10400
C41         C  0.61001841  0.23998299  0.82427159     1.10300
O42         O  0.64958407  0.27693881  0.71000360    -0.79300
O43         O  0.84443404  0.28980889  0.78064562    -0.79400
O44         O  0.75955027  0.29320256  0.65581953    -0.79300
O45         O  0.74228025  0.30231256  0.85254621    -0.79300
O46         O  0.80092784  0.24069137  0.85860609    -0.79300
O47         O  0.67848254  0.26016293  0.66684758    -0.79300
O48         O  0.67653119  0.32458541  0.77366933    -0.79300
O49         O  0.85235501  0.31634003  0.70070911    -0.79300
Co50       Co  0.68561604  0.20855652  0.72456173     1.51500
Co51       Co  0.80618376  0.22031844  0.78657887     1.51700
Co52       Co  0.79405137  0.27796742  0.72136968     1.51600
Co53       Co  0.69535882  0.26346471  0.80930765     1.51500
O54         O  0.74213371  0.24410288  0.75889926    -1.41200
C55         C  0.64993478  0.31962216  0.73435819     1.10300
C56         C  0.86343811  0.32041656  0.74721285     1.10400
C57         C  0.71326927  0.28532999  0.64054797     1.10400
C58         C  0.78072447  0.28181589  0.87425145     1.10300
O59         O  0.68447149  0.74003310  0.17551716    -0.79300
O60         O  0.83090580  0.74858716  0.18299400    -0.79300
O61         O  0.70532958  0.86314417  0.23317536    -0.79300
O62         O  0.77552452  0.65496441  0.21971655    -0.79300
O63         O  0.75939354  0.82832851  0.17610673    -0.79400
O64         O  0.69167396  0.64023687  0.20346097    -0.79300
O65         O  0.85587635  0.70333579  0.24733921    -0.79300
O66         O  0.63723754  0.78852964  0.22797785    -0.79300
C67         C  0.64510171  0.76926553  0.18416082     1.10400
C68         C  0.86137072  0.71613726  0.20163527     1.10300
C69         C  0.72353800  0.85980918  0.18810007     1.10400
C70         C  0.74025448  0.63063438  0.19550548     1.10300
O71         O  0.72135543  0.65650031  0.30081083    -0.79300
O72         O  0.79140374  0.86287513  0.27391410    -0.79400
O73         O  0.66315620  0.75721785  0.33032818    -0.79300
O74         O  0.81451125  0.74442444  0.33936949    -0.79300
O75         O  0.85962372  0.78761220  0.28220847    -0.79300
O76         O  0.64053884  0.70642810  0.26949118    -0.79300
O77         O  0.80537866  0.64250544  0.31769910    -0.79300
O78         O  0.73603379  0.83436461  0.33250678    -0.79300
Co79       Co  0.71028365  0.70133137  0.23493338     1.51500
Co80       Co  0.80674954  0.80392418  0.22872835     1.51700
Co81       Co  0.68887035  0.80779541  0.28130850     1.51600
Co82       Co  0.78665872  0.70246514  0.28326997     1.51500
O83         O  0.74817217  0.76150176  0.25730908    -1.41200
C84         C  0.75723560  0.63195366  0.32488621     1.10300
C85         C  0.77309456  0.86285449  0.31909202     1.10400
C86         C  0.63610862  0.72105692  0.31494132     1.10400
C87         C  0.85404862  0.77107984  0.32711945     1.10300
C88         C  0.53807790  0.99704704  0.03792883     0.03100
C89         C  0.53717390  0.03569536  0.00074355     0.03100
C90         C  0.49360288  0.03913791  0.96749257     0.03100
C91         C  0.45937161  0.99712625  0.96237693     0.03100
C92         C  0.46156143  0.95701844  0.99877927     0.03100
C93         C  0.50104570  0.95708481  0.03680907     0.03100
C94         C  0.63486655  0.95713915  0.13319700     0.81100
N95         N  0.63796017  0.99850433  0.16178068    -0.77200
C96         C  0.61184063  0.04103471  0.14984363     0.83500
N97         N  0.57964240  0.04112689  0.10951112    -0.77200
C98         C  0.57628090  0.99924234  0.07991806     0.83600
N99         N  0.60453713  0.95761765  0.09205123    -0.78900
C100        C  0.65114143  0.12192610  0.02175023     0.81100
N101        N  0.67618103  0.11901687  0.97606784    -0.77200
C102        C  0.65638531  0.09201239  0.93766058     0.83500
N103        N  0.61135317  0.06586774  0.94603782    -0.77200
C104        C  0.58540305  0.06769732  0.99192884     0.83600
N105        N  0.60542726  0.09664487  0.02949979    -0.78900
C106        C  0.35896645  0.03607470  0.86843217     0.81100
N107        N  0.39067830  0.03542198  0.90873686    -0.77200
C108        C  0.42268107  0.99552718  0.91795674     0.83500
N109        N  0.42262145  0.95584626  0.88479434    -0.77200
C110        C  0.38825140  0.95495237  0.84588275     0.83600
N111        N  0.35773423  0.99587095  0.83763137    -0.78900
C112        C  0.43083065  0.15729547  0.91577930     0.81100
N113        N  0.47158402  0.17464388  0.88829800    -0.77200
C114        C  0.51736154  0.14943218  0.88433841     0.83500
N115        N  0.52345096  0.10520708  0.90835595    -0.77200
C116        C  0.48435231  0.08723527  0.93864517     0.83600
N117        N  0.43744504  0.11375987  0.94230081    -0.78900
C118        C  0.55052866  0.84352212  0.10752981     0.81100
N119        N  0.51143493  0.83850122  0.14252050    -0.77200
C120        C  0.46945315  0.87027098  0.14489385     0.83500
N121        N  0.46757103  0.90953648  0.11229010    -0.77200
C122        C  0.50495999  0.91442424  0.07471537     0.83600
N123        N  0.54634761  0.88072246  0.07248224    -0.78900
C124        C  0.36378026  0.86215511  0.04329793     0.81100
N125        N  0.34822219  0.84238383  0.99943443    -0.77200
C126        C  0.36860657  0.85915153  0.95558442     0.83500
N127        N  0.40524376  0.89527092  0.95553818    -0.77200
C128        C  0.42097722  0.91635876  0.99913998     0.83600
N129        N  0.39932549  0.89954425  0.04318599    -0.78900
C130        C  0.03237721  0.49440442  0.95816018     0.03100
C131        C  0.98938191  0.46111301  0.95359835     0.03100
C132        C  0.94825214  0.46246293  0.99142316     0.03100
C133        C  0.94457911  0.50190267  0.02886200     0.03100
C134        C  0.98556207  0.53788079  0.02972047     0.03100
C135        C  0.02934046  0.53332890  0.99506940     0.03100
C136        C  0.14774637  0.60556099  0.03034279     0.81100
N137        N  0.11034469  0.56972859  0.03008246    -0.77200
C138        C  0.07144425  0.57166133  0.99526906     0.83500
N139        N  0.07120339  0.60873864  0.95999126    -0.77200
C140        C  0.11005824  0.64294181  0.95893740     0.83600
N141        N  0.14724603  0.64086312  0.99426231    -0.78900
C142        C  0.14242267  0.53219404  0.87226656     0.81100
N143        N  0.17362844  0.49115791  0.87151622    -0.77200
C144        C  0.15911088  0.44895921  0.89524329     0.83500
N145        N  0.11327994  0.44917079  0.92326262    -0.77200
C146        C  0.08081833  0.49080501  0.92414590     0.83600
N147        N  0.09559386  0.53181393  0.89744169    -0.78900
C148        C  0.03727756  0.62643008  0.12402825     0.81100
N149        N  0.03143362  0.58518694  0.09500175    -0.77200
C150        C  0.98663403  0.57863090  0.06869763     0.83500
N151        N  0.94673102  0.61323220  0.07381418    -0.77200
C152        C  0.95201419  0.65314849  0.10535767     0.83600
N153        N  0.99804476  0.66019846  0.12825849    -0.78900
C154        C  0.82985048  0.54559078  0.11358274     0.81100
N155        N  0.81472648  0.50149385  0.13323566    -0.77200
C156        C  0.84167192  0.45903323  0.12216736     0.83500
N157        N  0.88393045  0.46010207  0.09022412    -0.77200
C158        C  0.89935736  0.50334819  0.06787041     0.83600
N159        N  0.87196425  0.54654285  0.08033693    -0.78900
C160        C  0.94399009  0.39274509  0.83775109     0.81100
N161        N  0.94269203  0.42063609  0.88128169    -0.77200
C162        C  0.98739709  0.42607348  0.90858485     0.83500
N163        N  0.03210015  0.40240679  0.89181815    -0.77200
C164        C  0.03340823  0.37586554  0.84826674     0.83600
N165        N  0.98967873  0.37136789  0.82149552    -0.78900
C166        C  0.88562186  0.34700335  0.03955965     0.81100
N167        N  0.84912550  0.34003596  0.00449478    -0.77200
C168        C  0.84427593  0.37044432  0.96466094     0.83500
N169        N  0.87543728  0.41102952  0.96055504    -0.77200
C170        C  0.91319247  0.41874257  0.99535733     0.83600
N171        N  0.91895195  0.38589439  0.03435990    -0.78900
C172        C  0.54692670  0.45891798  0.50415872     0.03100
C173        C  0.50519173  0.45953498  0.54226634     0.03100
C174        C  0.46194513  0.49431140  0.53796084     0.03100
C175        C  0.46079533  0.52987378  0.49705347     0.03100
C176        C  0.50214770  0.52823424  0.45838675     0.03100
C177        C  0.54586706  0.49352975  0.46263395     0.03100
C178        C  0.55223720  0.38805490  0.65543493     0.81100
N179        N  0.50714691  0.36914338  0.67401893    -0.77200
C180        C  0.46161739  0.37771252  0.65068302     0.83500
N181        N  0.46137083  0.40453455  0.60721485    -0.77200
C182        C  0.50630984  0.42541714  0.58824027     0.83600
N183        N  0.55162148  0.41661145  0.61313113    -0.78900
C184        C  0.36643147  0.62812832  0.54848741     0.81100
N185        N  0.40425457  0.59200582  0.54457655    -0.77200
C186        C  0.41896324  0.57153228  0.49914991     0.83500
N187        N  0.39458369  0.58922468  0.45730218    -0.77200
C188        C  0.35755580  0.62669284  0.46140189     0.83600
N189        N  0.34395261  0.64574414  0.50686398    -0.78900
C190        C  0.66688677  0.54012087  0.39247160     0.81100
N191        N  0.62702252  0.53507885  0.42752840    -0.77200
C192        C  0.59268522  0.49580456  0.42496420     0.83500
N193        N  0.59976382  0.46094095  0.38655914    -0.77200
C194        C  0.64098221  0.46538504  0.35258680     0.83600
N195        N  0.67306203  0.50496276  0.35616662    -0.78900
C196        C  0.54769522  0.62016520  0.36112674     0.81100
N197        N  0.50472821  0.62655582  0.33336048    -0.77200
C198        C  0.46016107  0.60232770  0.34487482     0.83500
N199        N  0.45902834  0.57008134  0.38464689    -0.77200
C200        C  0.50209575  0.56371554  0.41395462     0.83600
N201        N  0.54612757  0.58985432  0.40192958    -0.78900
C202        C  0.38241808  0.53148940  0.65384218     0.81100
N203        N  0.42047466  0.52973968  0.61694599    -0.77200
C204        C  0.41902106  0.49510713  0.57887841     0.83500
N205        N  0.38051280  0.45959292  0.58040443    -0.77200
C206        C  0.34423075  0.45899714  0.61939750     0.83600
N207        N  0.34517313  0.49559065  0.65496555    -0.78900
C208        C  0.65790004  0.37205311  0.54084823     0.81100
N209        N  0.62118854  0.40987074  0.54311308    -0.77200
C210        C  0.58925164  0.41879232  0.50322595     0.83500
N211        N  0.59751821  0.39170505  0.46018525    -0.77200
C212        C  0.63575655  0.35597978  0.45720378     0.83600
N213        N  0.66529676  0.34604863  0.49747668    -0.78900
C214        C  0.04294695  0.95816066  0.50038975     0.03100
C215        C  0.00251810  0.95921834  0.46333165     0.03100
C216        C  0.96559015  0.00044720  0.46201148     0.03100
C217        C  0.96767951  0.04063709  0.49844604     0.03100
C218        C  0.00832519  0.04032430  0.53546671     0.03100
C219        C  0.04566422  0.99893643  0.53682227     0.03100
C220        C  0.05313576  0.15193628  0.61156285     0.81100
N221        N  0.05217123  0.11407011  0.57648942    -0.77200
C222        C  0.01000205  0.08273512  0.57424938     0.83500
N223        N  0.96983481  0.08922016  0.60899334    -0.77200
C224        C  0.97052732  0.12721531  0.64358070     0.83600
N225        N  0.01205515  0.15790931  0.64420564    -0.78900
C226        C  0.15222186  0.03309813  0.62711304     0.81100
N227        N  0.15638998  0.99041898  0.65317014    -0.77200
C228        C  0.12557643  0.95145134  0.64371164     0.83500
N229        N  0.08962339  0.95478219  0.60689254    -0.77200
C230        C  0.08529931  0.99686440  0.57846099     0.83600
N231        N  0.11653024  0.03667768  0.58950466    -0.78900
C232        C  0.12978462  0.84686795  0.53480787     0.81100
N233        N  0.09633671  0.88729461  0.53937258    -0.77200
C234        C  0.08291907  0.91464501  0.49790779     0.83500
N235        N  0.10354640  0.89962547  0.45220180    -0.77200
C236        C  0.13512362  0.85830372  0.44783864     0.83600
N237        N  0.14836512  0.83279307  0.48908618    -0.78900
C238        C  0.87180460  0.14566164  0.46690471     0.81100
N239        N  0.84336581  0.14786945  0.51018461    -0.77200
C240        C  0.85354816  0.11774717  0.54938884     0.83500
N241        N  0.89270650  0.08269722  0.54465436    -0.77200
C242        C  0.92388784  0.08015613  0.50195422     0.83600
N243        N  0.91305961  0.11218895  0.46282905    -0.78900
C244        C  0.87687120  0.04162627  0.35877351     0.81100
N245        N  0.91318076  0.04253339  0.39546831    -0.77200
C246        C  0.92436174  0.00050117  0.42207439     0.83500
N247        N  0.89909682  0.95763926  0.41015444    -0.77200
C248        C  0.86411509  0.95662973  0.37247723     0.83600
N249        N  0.85264956  0.99876661  0.34746543    -0.78900
C250        C  0.95342366  0.84455134  0.39601796     0.81100
N251        N  0.98928411  0.84029896  0.35749065    -0.77200
C252        C  0.02929845  0.87301045  0.35197198     0.83500
N253        N  0.03215817  0.91220771  0.38500441    -0.77200
C254        C  0.99813668  0.91619927  0.42569591     0.83600
N255        N  0.95913564  0.88160599  0.43113653    -0.78900
O256        O  0.27101037  0.16902797  0.67125436    -0.79300
O257        O  0.19926225  0.36448064  0.69513321    -0.79300
O258        O  0.14432293  0.21643427  0.71486522    -0.79300
O259        O  0.36004935  0.29475859  0.74949198    -0.79300
O260        O  0.19326191  0.26410281  0.66488888    -0.79400
O261        O  0.34182133  0.24680641  0.68518558    -0.79300
O262        O  0.28205273  0.34610144  0.71305406    -0.79300
O263        O  0.21090229  0.13906850  0.72404989    -0.79300
C264        C  0.23298587  0.13984622  0.68037900     1.10400
C265        C  0.24802051  0.37350152  0.68976109     1.10300
C266        C  0.15626780  0.23280966  0.67085883     1.10400
C267        C  0.36858198  0.28130785  0.70404753     1.10300
O268        O  0.35617258  0.21148053  0.79008446    -0.79300
O269        O  0.14283975  0.29825109  0.75709941    -0.79400
O270        O  0.23353453  0.16628930  0.82627524    -0.79300
O271        O  0.30382365  0.35839480  0.81331054    -0.79300
O272        O  0.22101555  0.34411283  0.79382682    -0.79300
O273        O  0.29241755  0.13566929  0.77144547    -0.79300
O274        O  0.30222843  0.25861183  0.83761948    -0.79300
O275        O  0.16278021  0.24695831  0.81860833    -0.79300
Co276      Co  0.31217803  0.19412711  0.72907123     1.51500
Co277      Co  0.21475312  0.30159484  0.72629167     1.51700
Co278      Co  0.19122635  0.19529907  0.77131121     1.51600
Co279      Co  0.28655914  0.29923023  0.77742525     1.51500
O280        O  0.25097546  0.23971497  0.74986000    -1.41200
C281        C  0.34141739  0.22891817  0.83350300     1.10300
C282        C  0.13529685  0.28273530  0.80186615     1.10400
C283        C  0.27034455  0.13544090  0.81489313     1.10400
C284        C  0.25509979  0.36694227  0.82076339     1.10300
O285        O  0.77843162  0.13706376  0.28670892    -0.79300
O286        O  0.75782650  0.35046482  0.19962092    -0.79300
O287        O  0.83356087  0.24547567  0.16879826    -0.79300
O288        O  0.83586496  0.25018963  0.31683840    -0.79300
O289        O  0.76498933  0.27994692  0.13301234    -0.79400
O290        O  0.77444615  0.20646790  0.35476346    -0.79300
O291        O  0.82714174  0.32183195  0.23907738    -0.79300
O292        O  0.84031542  0.17483869  0.24330780    -0.79300
C293        C  0.82666948  0.14193085  0.27452276     1.10400
C294        C  0.80673813  0.35205297  0.20829205     1.10300
C295        C  0.81413766  0.26979531  0.13312565     1.10400
C296        C  0.82227253  0.22007803  0.35143314     1.10300
O297        O  0.67018246  0.23968505  0.32187906    -0.79300
O298        O  0.66805573  0.23322062  0.17033180    -0.79400
O299        O  0.74263828  0.13196005  0.20661044    -0.79300
O300        O  0.72496641  0.35138570  0.28289859    -0.79300
O301        O  0.66112857  0.31169154  0.24584187    -0.79300
O302        O  0.67522248  0.16558460  0.24851818    -0.79300
O303        O  0.73246303  0.28547570  0.35358653    -0.79300
O304        O  0.73754603  0.19647291  0.13513052    -0.79300
Co305      Co  0.72433331  0.19171788  0.29816561     1.51500
Co306      Co  0.71351802  0.28931448  0.19220705     1.51700
Co307      Co  0.78775806  0.19206752  0.19313400     1.51600
Co308      Co  0.78016765  0.29731920  0.29340395     1.51500
O309        O  0.75133835  0.24275304  0.24426149    -1.41200
C310        C  0.68498851  0.27121992  0.35384214     1.10300
C311        C  0.68801591  0.20380926  0.13690836     1.10400
C312        C  0.69460882  0.13118087  0.22078981     1.10400
C313        C  0.67607431  0.34673104  0.27470585     1.10300
O314        O  0.31912237  0.64803201  0.23314758    -0.79300
O315        O  0.17374221  0.65226942  0.24328253    -0.79300
O316        O  0.28741297  0.71811640  0.35235242    -0.79300
O317        O  0.20833358  0.72818776  0.12920002    -0.79300
O318        O  0.24827667  0.65561994  0.31721213    -0.79400
O319        O  0.24451806  0.66078064  0.15957852    -0.79300
O320        O  0.13740260  0.71336431  0.19931505    -0.79300
O321        O  0.35795819  0.70392657  0.28094534    -0.79300
C322        C  0.35282212  0.65862432  0.26572613     1.10400
C323        C  0.14137083  0.66702987  0.21084904     1.10300
C324        C  0.27743247  0.67181094  0.35102421     1.10400
C325        C  0.22010141  0.68207085  0.12487945     1.10300
O326        O  0.29345752  0.75980814  0.13750306    -0.79300
O327        O  0.20270494  0.75555318  0.34784116    -0.79400
O328        O  0.33479774  0.80549728  0.23942322    -0.79300
O329        O  0.16169560  0.81007260  0.24917707    -0.79300
O330        O  0.12802843  0.74352161  0.28307938    -0.79300
O331        O  0.36716788  0.73972382  0.20044106    -0.79300
O332        O  0.24461848  0.81777057  0.17759018    -0.79300
O333        O  0.25333946  0.81274420  0.31180879    -0.79300
Co334      Co  0.30052336  0.70256266  0.18724234     1.51500
Co335      Co  0.19367495  0.70231876  0.29351616     1.51700
Co336      Co  0.30353325  0.76004120  0.29129595     1.51600
Co337      Co  0.19286505  0.76667513  0.19375628     1.51500
O338        O  0.24757503  0.73294432  0.24149703    -1.41200
C339        C  0.27933895  0.80564246  0.14462544     1.10300
C340        C  0.21823659  0.80086602  0.34389887     1.10400
C341        C  0.37108851  0.78528723  0.21276262     1.10400
C342        C  0.12482186  0.78986546  0.27413826     1.10300
C343        C  0.07327411  0.86147077  0.31490769    -0.15600
C344        C  0.07592368  0.81627292  0.29170721    -0.30800
H345        H  0.10739171  0.88541610  0.31410062     0.13400
H346        H  0.04213717  0.79202578  0.29503157     0.14000
C347        C  0.85242016  0.08696411  0.34098824    -0.15600
C348        C  0.86548742  0.10835752  0.29719640    -0.30800
H349        H  0.81474455  0.09583742  0.35918751     0.13400
H350        H  0.90214997  0.09893601  0.27731837     0.14000
C351        C  0.84401728  0.16695013  0.42339059    -0.15600
C352        C  0.86090583  0.19988849  0.38844764    -0.30800
H353        H  0.80254008  0.15776774  0.42410426     0.13400
H354        H  0.90140348  0.21208903  0.38755769     0.14000
C355        C  0.14926471  0.83526289  0.39952776    -0.15600
C356        C  0.19775880  0.83898010  0.37969775    -0.30800
H357        H  0.12409009  0.80532395  0.38717065     0.13400
H358        H  0.22380574  0.86802425  0.39262017     0.14000
C359        C  0.17195640  0.07649454  0.65365080    -0.15600
C360        C  0.21443647  0.10385224  0.64180319    -0.30800
H361        H  0.15369189  0.08055587  0.69095080     0.13400
H362        H  0.23545237  0.09870884  0.60599548     0.14000
C363        C  0.12381719  0.21524888  0.62812284    -0.15600
C364        C  0.10288907  0.16928745  0.63188318    -0.30800
H365        H  0.11380268  0.24022882  0.59754018     0.13400
H366        H  0.11172528  0.14884144  0.66558198     0.14000
C367        C  0.65559227  0.33823338  0.40876147    -0.09000
C368        C  0.64841797  0.29154359  0.39243189    -0.30800
H369        H  0.68572190  0.36117129  0.39124972     0.13400
H370        H  0.61873983  0.26784464  0.40960904     0.14000
C371        C  0.30990073  0.41484077  0.62878445    -0.15600
C372        C  0.26705950  0.41729594  0.66023220    -0.30800
H373        H  0.32440693  0.37844127  0.61576966     0.13400
H374        H  0.25047416  0.45368071  0.67083500     0.14000
C375        C  0.41266825  0.62798540  0.32875365    -0.15600
C376        C  0.38803244  0.61915139  0.28562506    -0.30800
H377        H  0.40643161  0.66394760  0.34721909     0.13400
H378        H  0.39557036  0.58482245  0.26432903     0.14000
C379        C  0.65779088  0.42830732  0.31288243    -0.15600
C380        C  0.63882057  0.38291013  0.30103897    -0.30800
H381        H  0.69464949  0.43833680  0.29411429     0.13400
H382        H  0.60107012  0.37062523  0.31582425     0.14000
C383        C  0.33811136  0.65414467  0.41829713    -0.15600
C384        C  0.30046101  0.63756544  0.38831234    -0.30800
H385        H  0.35042104  0.69287144  0.41581227     0.13400
H386        H  0.28653644  0.59943578  0.39153438     0.14000
C387        C  0.41415489  0.35545647  0.67249082    -0.15600
C388        C  0.40943729  0.30552712  0.67326345    -0.30800
H389        H  0.38663380  0.37942451  0.69364867     0.13400
H390        H  0.43632198  0.28196027  0.65082267     0.14000
C391        C  0.88166871  0.31685509  0.08601785    -0.15600
C392        C  0.84548277  0.28057205  0.08792242    -0.30800
H393        H  0.89939609  0.33048707  0.12019765     0.13400
H394        H  0.82789577  0.26753016  0.05337174     0.14000
C395        C  0.08203650  0.35492737  0.82710382    -0.15600
C396        C  0.09474726  0.30678894  0.83406675    -0.30800
H397        H  0.10321644  0.37713480  0.79930515     0.13400
H398        H  0.07402153  0.28475749  0.86231879     0.14000
C399        C  0.83840182  0.39062133  0.18311521    -0.15600
C400        C  0.82068383  0.41219437  0.14110997    -0.30800
H401        H  0.87456402  0.40294623  0.19993434     0.13400
H402        H  0.78430543  0.39986187  0.12469370     0.14000
C403        C  0.08803144  0.64214823  0.14142130    -0.15600
C404        C  0.10530871  0.63172101  0.18747642    -0.30800
H405        H  0.10437519  0.67370302  0.12101760     0.13400
H406        H  0.08883596  0.60131254  0.20948421     0.14000
C407        C  0.18929359  0.40243004  0.88244720    -0.15600
C408        C  0.23658519  0.40498610  0.85806012    -0.30800
H409        H  0.16912079  0.36702692  0.88456709     0.13400
H410        H  0.25868580  0.43945275  0.85920414     0.14000
C411        C  0.18268287  0.61303819  0.07384452    -0.15600
C412        C  0.20840064  0.65677339  0.07727639    -0.30800
H413        H  0.17855729  0.58902804  0.10657621     0.13400
H414        H  0.21062014  0.68134588  0.04482337     0.14000
C415        C  0.30138984  0.84409965  0.11138908    -0.15600
C416        C  0.34853065  0.83642172  0.08926190    -0.30800
H417        H  0.27747003  0.87662723  0.10195735     0.13400
H418        H  0.37202048  0.80361363  0.09864374     0.14000
C419        C  0.42320414  0.85734391  0.17783903    -0.15600
C420        C  0.42004057  0.81078427  0.19729655    -0.30800
H421        H  0.38892670  0.88208322  0.17892864     0.13400
H422        H  0.45381665  0.78561663  0.19307989     0.14000
C423        C  0.37858961  0.18087625  0.90574014    -0.15600
C424        C  0.37686570  0.22246170  0.87649012    -0.30800
H425        H  0.34347084  0.15928315  0.91224534     0.13400
H426        H  0.41194636  0.24494366  0.87275384     0.14000
C427        C  0.33874144  0.08334803  0.84920316    -0.15600
C428        C  0.28771466  0.09671345  0.85033186    -0.30800
H429        H  0.36656851  0.10472776  0.82661256     0.13400
H430        H  0.25920708  0.07686464  0.87350464     0.14000
C431        C  0.67813559  0.14881802  0.06262531    -0.15600
C432        C  0.65506967  0.17775294  0.09912452    -0.30800
H433        H  0.72079717  0.14697618  0.05998496     0.13400
H434        H  0.61261891  0.18255376  0.10080259     0.14000
C435        C  0.62358463  0.08721466  0.17800560    -0.15600
C436        C  0.66498672  0.08677719  0.20865935    -0.30800
H437        H  0.60393317  0.12209808  0.16859007     0.13400
H438        H  0.68585992  0.05194171  0.21618722     0.14000
C439        C  0.79378683  0.89902165  0.35487970    -0.15600
C440        C  0.84484600  0.90991841  0.35241340    -0.30800
H441        H  0.76690522  0.91938695  0.38030545     0.13400
H442        H  0.87145042  0.88893110  0.32723353     0.14000
C443        C  0.70380354  0.89538480  0.15083685    -0.15600
C444        C  0.65357925  0.91055916  0.15475805    -0.30800
H445        H  0.73065667  0.91179757  0.12333786     0.13400
H446        H  0.62735724  0.89340006  0.18239027     0.14000
C447        C  0.90545244  0.69410536  0.17333052    -0.15600
C448        C  0.90689664  0.68356959  0.12364840    -0.30800
H449        H  0.93704815  0.68074049  0.19699484     0.13400
H450        H  0.87395524  0.69205990  0.09966256     0.14000
C451        C  0.89997404  0.77692252  0.36011570    -0.15600
C452        C  0.90402129  0.81482089  0.39375495    -0.30800
H453        H  0.93628869  0.76183764  0.34336377     0.13400
H454        H  0.86861359  0.83059321  0.41151165     0.14000
C455        C  0.69760028  0.58721136  0.38636147    -0.15600
C456        C  0.74161229  0.58819053  0.35628374    -0.30800
H457        H  0.67952656  0.62219254  0.39918973     0.13400
H458        H  0.76187423  0.55313356  0.34696038     0.14000
C459        C  0.75749084  0.59039646  0.15995392    -0.15600
C460        C  0.80402914  0.59176826  0.13415557    -0.30800
H461        H  0.73348180  0.55716752  0.15832098     0.13400
H462        H  0.82582790  0.62598303  0.13354093     0.14000
C463        C  0.60207137  0.77574766  0.14768184    -0.15600
C464        C  0.60026693  0.81355532  0.11384166    -0.30800
H465        H  0.56487597  0.76100613  0.16140437     0.13400
H466        H  0.63665277  0.82855055  0.09866973     0.14000
C467        C  0.59990457  0.69476481  0.34898603    -0.15600
C468        C  0.59533635  0.64501594  0.34443428    -0.30800
H469        H  0.57406340  0.71623622  0.37445654     0.13400
H470        H  0.62143862  0.62397715  0.31884127     0.14000
C471        C  0.89989584  0.35888353  0.76411367    -0.15600
C472        C  0.89615719  0.37845576  0.81123013    -0.30800
H473        H  0.93473293  0.36500556  0.74060536     0.13400
H474        H  0.86011125  0.37479667  0.83318940     0.14000
C475        C  0.92992435  0.16837110  0.71930269    -0.15600
C476        C  0.92607024  0.13702392  0.67953585    -0.30800
H477        H  0.96806780  0.18148549  0.73075639     0.13400
H478        H  0.88848021  0.12126506  0.67182376     0.14000
C479        C  0.67880929  0.09838050  0.88551250    -0.15600
C480        C  0.72680327  0.11800169  0.87660566    -0.30800
H481        H  0.65234225  0.09494646  0.85440940     0.13400
H482        H  0.75459245  0.11802440  0.90709556     0.14000
C483        C  0.81031179  0.35407289  0.92392041    -0.15600
C484        C  0.80313888  0.30451364  0.91846968    -0.30800
H485        H  0.79625318  0.38060306  0.89625250     0.13400
H486        H  0.82122757  0.27818865  0.94421652     0.14000
C487        C  0.56283686  0.22010408  0.84765057    -0.15600
C488        C  0.55909505  0.17037762  0.85302372    -0.30800
H489        H  0.53606058  0.24564136  0.86789047     0.13400
H490        H  0.58830138  0.14541124  0.83599386     0.14000
C491        C  0.61883361  0.36252181  0.71583635    -0.15600
C492        C  0.59983742  0.36149964  0.66926347    -0.30800
H493        H  0.60689938  0.39225067  0.74203460     0.13400
H494        H  0.60962933  0.33033620  0.64449688     0.14000
C495        C  0.69719808  0.30642919  0.59213332    -0.15600
C496        C  0.68695119  0.35571064  0.58566066    -0.30800
H497        H  0.68539371  0.27960588  0.56373676     0.13400
H498        H  0.69358289  0.38224178  0.61599221     0.14000
C499        C  0.79905777  0.17073446  0.60496360    -0.15600
C500        C  0.82324855  0.12607137  0.59710758    -0.30800
H501        H  0.79941497  0.19875147  0.57542968     0.13400
H502        H  0.82359770  0.09791104  0.62639611     0.14000
C503        C  0.35609901  0.79943301  0.88767609    -0.15600
C504        C  0.34445334  0.84359236  0.90943262    -0.30800
H505        H  0.39040907  0.77766325  0.89849698     0.13400
H506        H  0.31042258  0.86544350  0.89795669     0.14000
C507        C  0.15915627  0.70831970  0.91665706    -0.15600
C508        C  0.11725951  0.67816375  0.91658508    -0.30800
H509        H  0.18137667  0.71268059  0.95086594     0.13400
H510        H  0.09520014  0.67277971  0.88247807     0.14000
C511        C  0.13350008  0.88415615  0.70623365    -0.15600
C512        C  0.14510589  0.90369752  0.66109187    -0.30800
H513        H  0.09902831  0.89652168  0.72808435     0.13400
H514        H  0.18155384  0.89243919  0.64206897     0.14000
C515        C  0.33494634  0.90583573  0.78802193    -0.15600
C516        C  0.37815477  0.90821258  0.81666867    -0.30800
H517        H  0.31210435  0.93982951  0.78182361     0.13400
H518        H  0.40025534  0.87434424  0.82507675     0.14000
C519        C  0.34889878  0.69133878  0.61271399    -0.15600
C520        C  0.34378964  0.64416882  0.59678583    -0.30800
H521        H  0.37857853  0.71524657  0.59580244     0.13400
H522        H  0.31420198  0.62030018  0.61383081     0.14000
C523        C  0.15880618  0.82647715  0.57701636    -0.15600
C524        C  0.14037314  0.79407881  0.61131321    -0.30800
H525        H  0.20051591  0.83470216  0.57571074     0.13400
H526        H  0.09925455  0.78372829  0.61205991     0.14000
C527        C  0.33265783  0.58175372  0.71672434    -0.15600
C528        C  0.37610868  0.57645186  0.68718366    -0.30800
H529        H  0.30773182  0.54948233  0.72231136     0.13400
H530        H  0.40056956  0.60865827  0.67964787     0.14000
C531        C  0.14429053  0.60631670  0.81704244    -0.15600
C532        C  0.16520703  0.57788014  0.85314327    -0.30800
H533        H  0.10470448  0.60016932  0.80412437     0.13400
H534        H  0.20533784  0.58383580  0.86473780     0.14000
loop_ 
_geom_bond_atom_site_label_1 
_geom_bond_atom_site_label_2 
_geom_bond_distance 
_geom_bond_site_symmetry_2 
_ccdc_geom_bond_type 
O1            C9   1.266       .  A
O1          Co21   1.994       .  S
O2           C10   1.264       .  A
O2          Co22   1.993       .  S
O3           C11   1.278       .  A
O3          Co23   2.025       .  S
O4           C12   1.276       .  A
O4          Co24   2.012       .  S
O5           C11   1.263       .  A
O5          Co22   1.953       .  S
O6           C12   1.264       .  A
O6          Co21   1.958       .  S
O7           C10   1.269       .  A
O7          Co24   2.021       .  S
O8            C9   1.267       .  A
O8          Co23   2.013       .  S
C9          C527   1.475       .  S
C10         C515   1.476       .  S
C11         C519   1.463       .  S
C12         C503   1.461       .  S
O13          C26   1.269       .  A
O13         Co21   2.018       .  S
O14          C27   1.271       .  A
O14         Co22   2.019       .  S
O15          C28   1.265       .  A
O15         Co23   1.971       .  S
O16          C29   1.262       .  A
O16         Co24   1.962       .  S
O17          C29   1.277       .  A
O17         Co22   2.020       .  S
O18          C28   1.274       .  A
O18         Co21   2.003       .  S
O19          C26   1.258       .  A
O19         Co24   1.970       .  S
O20          C27   1.260       .  A
O20         Co23   1.974       .  S
Co21         O25   2.096       .  S
Co22         O25   2.091       .  S
Co23         O25   2.102       .  S
Co24         O25   2.098       .  S
C26         C507   1.458       .  S
C27         C524   1.483       .  S
C28         C531   1.472       .  S
C29         C511   1.473       .  S
O30          C38   1.271       .  A
O30         Co50   2.008       .  S
O31          C39   1.282       .  A
O31         Co51   1.997       .  S
O32          C40   1.322       .  A
O32         Co52   2.158       .  S
O33          C41   1.277       .  A
O33         Co53   1.849       .  S
O34          C40   1.280       .  A
O34         Co51   1.894       .  S
O35          C41   1.309       .  A
O35         Co50   2.107       .  S
O36          C39   1.279       .  A
O36         Co53   2.029       .  S
O37          C38   1.289       .  A
O37         Co52   2.016       .  S
C38         C499   1.461       .  S
C39         C480   1.486       .  S
C40         C475   1.475       .  S
C41         C487   1.448       .  S
O42          C55   1.307       .  A
O42         Co50   2.073       .  S
O43          C56   1.299       .  A
O43         Co51   2.113       .  S
O44          C57   1.274       .  A
O44         Co52   2.006       .  S
O45          C58   1.265       .  A
O45         Co53   1.975       .  S
O46          C58   1.269       .  A
O46         Co51   1.983       .  S
O47          C57   1.310       .  A
O47         Co50   2.074       .  S
O48          C55   1.263       .  A
O48         Co53   1.950       .  S
O49          C56   1.275       .  A
O49         Co52   1.888       .  S
Co50         O54   1.972       .  S
Co51         O54   1.905       .  S
Co52         O54   1.881       .  S
Co53         O54   1.835       .  S
C55         C491   1.475       .  S
C56         C471   1.469       .  S
C57         C495   1.469       .  S
C58         C484   1.449       .  S
O59          C67   1.276       .  A
O59         Co79   2.006       .  S
O60          C68   1.264       .  A
O60         Co80   1.987       .  S
O61          C69   1.273       .  A
O61         Co81   2.001       .  S
O62          C70   1.296       .  A
O62         Co82   2.129       .  S
O63          C69   1.265       .  A
O63         Co80   1.971       .  S
O64          C70   1.271       .  A
O64         Co79   1.899       .  S
O65          C68   1.266       .  A
O65         Co82   1.983       .  S
O66          C67   1.278       .  A
O66         Co81   2.022       .  S
C67         C463   1.486       .  S
C68         C447   1.450       .  S
C69         C443   1.466       .  S
C70         C459   1.480       .  S
O71          C84   1.298       .  A
O71         Co79   2.144       .  S
O72          C85   1.275       .  A
O72         Co80   2.000       .  S
O73          C86   1.265       .  A
O73         Co81   1.987       .  S
O74          C87   1.278       .  A
O74         Co82   2.005       .  S
O75          C87   1.278       .  A
O75         Co80   2.022       .  S
O76          C86   1.266       .  A
O76         Co79   1.981       .  S
O77          C84   1.272       .  A
O77         Co82   1.907       .  S
O78          C85   1.266       .  A
O78         Co81   1.968       .  S
Co79         O83   1.981       .  S
Co80         O83   2.022       .  S
Co81         O83   2.025       .  S
Co82         O83   1.979       .  S
C84         C456   1.492       .  S
C85         C439   1.462       .  S
C86         C467   1.464       .  S
C87         C451   1.485       .  S
C88          C89   1.432   1_565  A
C88          C93   1.435       .  A
C88          C98   1.496       .  S
C89          C90   1.434   1_554  A
C89         C104   1.520   1_554  S
C90          C91   1.438   1_545  A
C90         C116   1.517       .  S
C91          C92   1.447       .  A
C91         C108   1.520       .  S
C92          C93   1.440   1_556  A
C92         C128   1.510       .  S
C93         C122   1.527       .  S
C94         C444   1.450       .  S
C94          N95   1.340       .  A
C94          N99   1.351       .  A
N95          C96   1.350   1_565  A
C96         C435   1.476       .  S
C96          N97   1.362       .  A
N97          C98   1.367   1_545  A
C98          N99   1.359       .  A
C100        C431   1.484       .  S
C100        N101   1.356   1_554  A
C100        N105   1.366       .  A
N101        C102   1.355       .  A
C102        C479   1.495       .  S
C102        N103   1.365       .  A
N103        C104   1.371       .  A
C104        N105   1.369   1_556  A
C106        C427   1.455       .  S
C106        N107   1.354       .  A
C106        N111   1.346   1_545  A
N107        C108   1.358   1_545  A
C108        N109   1.373       .  A
N109        C110   1.368       .  A
C110        C516   1.494       .  S
C110        N111   1.353       .  A
C112        C423   1.492       .  S
C112        N113   1.343       .  A
C112        N117   1.372       .  A
N113        C114   1.338       .  A
C114        C488   1.453       .  S
C114        N115   1.353       .  A
N115        C116   1.359       .  A
C116        N117   1.380       .  A
C118        C464   1.500       .  S
C118        N119   1.353       .  A
C118        N123   1.369       .  A
N119        C120   1.354       .  A
C120        C419   1.495       .  S
C120        N121   1.364       .  A
N121        C122   1.369       .  A
C122        N123   1.375       .  A
C124        C416   1.450       .  S
C124        N125   1.344   1_554  A
C124        N129   1.357       .  A
N125        C126   1.344       .  A
C126        C504   1.443       .  S
C126        N127   1.352       .  A
N127        C128   1.354       .  A
C128        N129   1.361   1_556  A
C130        C131   1.427   1_455  A
C130        C135   1.423       .  A
C130        C146   1.512       .  S
C131        C132   1.432       .  A
C131        C162   1.514       .  S
C132        C133   1.443   1_556  A
C132        C170   1.483       .  S
C133        C134   1.429       .  A
C133        C158   1.529       .  S
C134        C135   1.431   1_654  A
C134        C150   1.497       .  S
C135        C138   1.493       .  S
C136        C411   1.487       .  S
C136        N137   1.360       .  A
C136        N141   1.347   1_554  A
N137        C138   1.369   1_554  A
C138        N139   1.366       .  A
N139        C140   1.356       .  A
C140        C508   1.479       .  S
C140        N141   1.347       .  A
C142        C532   1.448       .  S
C142        N143   1.343       .  A
C142        N147   1.352       .  A
N143        C144   1.346       .  A
C144        C407   1.484       .  S
C144        N145   1.368       .  A
N145        C146   1.375       .  A
C146        N147   1.360       .  A
C148        C403   1.449       .  S
C148        N149   1.352       .  A
C148        N153   1.337   1_455  A
N149        C150   1.363   1_455  A
C150        N151   1.366       .  A
N151        C152   1.361       .  A
C152        C448   1.468       .  S
C152        N153   1.347       .  A
C154        C460   1.483       .  S
C154        N155   1.348       .  A
C154        N159   1.372       .  A
N155        C156   1.343       .  A
C156        C400   1.455       .  S
C156        N157   1.354       .  A
N157        C158   1.360       .  A
C158        N159   1.373       .  A
C160        C472   1.474       .  S
C160        N161   1.369       .  A
C160        N165   1.348       .  A
N161        C162   1.371       .  A
C162        N163   1.357   1_655  A
N163        C164   1.350       .  A
C164        C395   1.450       .  S
C164        N165   1.340   1_455  A
C166        C391   1.477       .  S
C166        N167   1.343       .  A
C166        N171   1.356       .  A
N167        C168   1.343   1_554  A
C168        C483   1.467       .  S
C168        N169   1.356       .  A
N169        C170   1.364       .  A
C170        N171   1.369   1_556  A
C172        C173   1.448       .  A
C172        C177   1.442       .  A
C172        C210   1.507       .  S
C173        C174   1.436       .  A
C173        C182   1.526       .  S
C174        C175   1.446       .  A
C174        C204   1.521       .  S
C175        C176   1.452       .  A
C175        C186   1.528       .  S
C176        C177   1.444       .  A
C176        C200   1.516       .  S
C177        C192   1.539       .  S
C178        C492   1.450       .  S
C178        N179   1.345       .  A
C178        N183   1.360       .  A
N179        C180   1.343       .  A
C180        C387   1.463       .  S
C180        N181   1.360       .  A
N181        C182   1.367       .  A
C182        N183   1.360       .  A
C184        C520   1.451       .  S
C184        N185   1.354       .  A
C184        N189   1.339       .  A
N185        C186   1.361       .  A
C186        N187   1.367       .  A
N187        C188   1.366       .  A
C188        C383   1.453       .  S
C188        N189   1.341       .  A
C190        C455   1.498       .  S
C190        N191   1.368       .  A
C190        N195   1.345       .  A
N191        C192   1.378       .  A
C192        N193   1.382       .  A
N193        C194   1.373       .  A
C194        C379   1.491       .  S
C194        N195   1.349       .  A
C196        C468   1.452       .  S
C196        N197   1.341       .  A
C196        N201   1.355       .  A
N197        C198   1.344       .  A
C198        C375   1.454       .  S
C198        N199   1.365       .  A
N199        C200   1.367       .  A
C200        N201   1.362       .  A
C202        C528   1.491       .  S
C202        N203   1.360       .  A
C202        N207   1.358       .  A
N203        C204   1.366       .  A
C204        N205   1.374       .  A
N205        C206   1.370       .  A
C206        C371   1.497       .  S
C206        N207   1.355       .  A
C208        C496   1.478       .  S
C208        N209   1.365       .  A
C208        N213   1.347       .  A
N209        C210   1.368       .  A
C210        N211   1.358       .  A
N211        C212   1.353       .  A
C212        C367   1.443       .  S
C212        N213   1.345       .  A
C214        C215   1.439       .  A
C214        C219   1.454       .  A
C214        C234   1.533       .  S
C215        C216   1.438   1_465  A
C215        C254   1.524   1_455  S
C216        C217   1.442       .  A
C216        C246   1.507       .  S
C217        C218   1.442   1_655  A
C217        C242   1.524       .  S
C218        C219   1.448   1_545  A
C218        C222   1.527       .  S
C219        C230   1.513       .  S
C220        C364   1.468       .  S
C220        N221   1.370       .  A
C220        N225   1.348       .  A
N221        C222   1.373       .  A
C222        N223   1.368   1_455  A
N223        C224   1.364       .  A
C224        C476   1.481       .  S
C224        N225   1.347   1_655  A
C226        C359   1.454       .  S
C226        N227   1.340   1_545  A
C226        N231   1.367       .  A
N227        C228   1.338       .  A
C228        C512   1.443       .  S
C228        N229   1.355       .  A
N229        C230   1.361       .  A
C230        N231   1.371   1_565  A
C232        C523   1.458       .  S
C232        N233   1.367       .  A
C232        N237   1.340       .  A
N233        C234   1.370       .  A
C234        N235   1.365       .  A
N235        C236   1.358       .  A
C236        C355   1.453       .  S
C236        N237   1.339       .  A
C238        C351   1.479       .  S
C238        N239   1.343       .  A
C238        N243   1.370       .  A
N239        C240   1.345       .  A
C240        C500   1.480       .  S
C240        N241   1.360       .  A
N241        C242   1.368       .  A
C242        N243   1.378       .  A
C244        C347   1.440       .  S
C244        N245   1.357       .  A
C244        N249   1.344   1_545  A
N245        C246   1.359       .  A
C246        N247   1.360   1_545  A
N247        C248   1.353       .  A
C248        C440   1.450       .  S
C248        N249   1.341       .  A
C250        C452   1.499       .  S
C250        N251   1.357       .  A
C250        N255   1.366       .  A
N251        C252   1.357   1_655  A
C252        C343   1.499       .  S
C252        N253   1.364       .  A
N253        C254   1.370   1_455  A
C254        N255   1.372       .  A
O256        C264   1.271       .  A
O256       Co276   1.995       .  S
O257        C265   1.272       .  A
O257       Co277   1.915       .  S
O258        C266   1.280       .  A
O258       Co278   2.013       .  S
O259        C267   1.268       .  A
O259       Co279   1.997       .  S
O260        C266   1.276       .  A
O260       Co277   1.997       .  S
O261        C267   1.262       .  A
O261       Co276   1.978       .  S
O262        C265   1.295       .  A
O262       Co279   2.126       .  S
O263        C264   1.275       .  A
O263       Co278   2.000       .  S
C264        C360   1.489       .  S
C265        C372   1.492       .  S
C266        C363   1.495       .  S
C267        C388   1.467       .  S
O268        C281   1.285       .  A
O268       Co276   2.043       .  S
O269        C282   1.270       .  A
O269       Co277   1.990       .  S
O270        C283   1.268       .  A
O270       Co278   1.985       .  S
O271        C284   1.268       .  A
O271       Co279   1.902       .  S
O272        C284   1.293       .  A
O272       Co277   2.124       .  S
O273        C283   1.270       .  A
O273       Co276   1.992       .  S
O274        C281   1.267       .  A
O274       Co279   1.979       .  S
O275        C282   1.264       .  A
O275       Co278   1.976       .  S
Co276       O280   2.026       .  S
Co277       O280   1.991       .  S
Co278       O280   2.016       .  S
Co279       O280   1.985       .  S
C281        C424   1.479       .  S
C282        C396   1.462       .  S
C283        C428   1.471       .  S
C284        C408   1.477       .  S
O285        C293   1.271       .  A
O285       Co305   2.008       .  S
O286        C294   1.272       .  A
O286       Co306   2.010       .  S
O287        C295   1.257       .  A
O287       Co307   1.958       .  S
O288        C296   1.269       .  A
O288       Co308   1.993       .  S
O289        C295   1.276       .  A
O289       Co306   2.032       .  S
O290        C296   1.277       .  A
O290       Co305   2.032       .  S
O291        C294   1.265       .  A
O291       Co308   1.971       .  S
O292        C293   1.258       .  A
O292       Co307   1.959       .  S
C293        C348   1.465       .  S
C294        C399   1.471       .  S
C295        C392   1.456       .  S
C296        C352   1.501       .  S
O297        C310   1.259       .  A
O297       Co305   1.957       .  S
O298        C311   1.272       .  A
O298       Co306   1.998       .  S
O299        C312   1.271       .  A
O299       Co307   2.016       .  S
O300        C313   1.276       .  A
O300       Co308   2.024       .  S
O301        C313   1.273       .  A
O301       Co306   2.008       .  S
O302        C312   1.260       .  A
O302       Co305   1.968       .  S
O303        C310   1.272       .  A
O303       Co308   2.011       .  S
O304        C311   1.272       .  A
O304       Co307   2.024       .  S
Co305       O309   2.092       .  S
Co306       O309   2.103       .  S
Co307       O309   2.100       .  S
Co308       O309   2.100       .  S
C310        C368   1.463       .  S
C311        C432   1.496       .  S
C312        C436   1.453       .  S
C313        C380   1.501       .  S
O314        C322   1.265       .  A
O314       Co334   1.962       .  S
O315        C323   1.265       .  A
O315       Co335   1.961       .  S
O316        C324   1.266       .  A
O316       Co336   2.011       .  S
O317        C325   1.267       .  A
O317       Co337   2.018       .  S
O318        C324   1.256       .  A
O318       Co335   1.969       .  S
O319        C325   1.256       .  A
O319       Co334   1.975       .  S
O320        C323   1.279       .  A
O320       Co337   2.023       .  S
O321        C322   1.282       .  A
O321       Co336   2.038       .  S
C322        C376   1.480       .  S
C323        C404   1.470       .  S
C324        C384   1.476       .  S
C325        C412   1.466       .  S
O326        C339   1.282       .  A
O326       Co334   2.033       .  S
O327        C340   1.283       .  A
O327       Co335   2.037       .  S
O328        C341   1.262       .  A
O328       Co336   1.999       .  S
O329        C342   1.265       .  A
O329       Co337   2.007       .  S
O330        C342   1.263       .  A
O330       Co335   2.012       .  S
O331        C341   1.264       .  A
O331       Co334   2.014       .  S
O332        C339   1.265       .  A
O332       Co337   1.953       .  S
O333        C340   1.264       .  A
O333       Co336   1.952       .  S
Co334       O338   2.099       .  S
Co335       O338   2.100       .  S
Co336       O338   2.098       .  S
Co337       O338   2.099       .  S
C339        C415   1.467       .  S
C340        C356   1.469       .  S
C341        C420   1.479       .  S
C342        C344   1.485       .  S
C343        C344   1.351       .  D
C343        H345   1.086       .  S
C344        H346   1.086       .  S
C347        C348   1.334       .  D
C347        H349   1.085       .  S
C348        H350   1.086       .  S
C351        C352   1.349       .  D
C351        H353   1.087       .  S
C352        H354   1.085       .  S
C355        C356   1.335       .  D
C355        H357   1.086       .  S
C356        H358   1.087       .  S
C359        C360   1.346       .  D
C359        H361   1.087       .  S
C360        H362   1.085       .  S
C363        C364   1.349       .  D
C363        H365   1.085       .  S
C364        H366   1.076       .  S
C367        C368   1.334       .  D
C367        H369   1.086       .  S
C368        H370   1.086       .  S
C371        C372   1.357       .  D
C371        H373   1.086       .  S
C372        H374   1.086       .  S
C375        C376   1.338       .  D
C375        H377   1.083       .  S
C376        H378   1.086       .  S
C379        C380   1.350       .  D
C379        H381   1.089       .  S
C380        H382   1.085       .  S
C383        C384   1.338       .  D
C383        H385   1.087       .  S
C384        H386   1.086       .  S
C387        C388   1.341       .  D
C387        H389   1.086       .  S
C388        H390   1.087       .  S
C391        C392   1.347       .  D
C391        H393   1.085       .  S
C392        H394   1.086       .  S
C395        C396   1.336       .  D
C395        H397   1.087       .  S
C396        H398   1.087       .  S
C399        C400   1.341       .  D
C399        H401   1.086       .  S
C400        H402   1.087       .  S
C403        C404   1.336       .  D
C403        H405   1.087       .  S
C404        H406   1.086       .  S
C407        C408   1.356       .  D
C407        H409   1.084       .  S
C408        H410   1.086       .  S
C411        C412   1.351       .  D
C411        H413   1.086       .  S
C412        H414   1.086       .  S
C415        C416   1.335       .  D
C415        H417   1.087       .  S
C416        H418   1.086       .  S
C419        C420   1.352       .  D
C419        H421   1.086       .  S
C420        H422   1.086       .  S
C423        C424   1.359       .  D
C423        H425   1.082       .  S
C424        H426   1.086       .  S
C427        C428   1.341       .  D
C427        H429   1.087       .  S
C428        H430   1.086       .  S
C431        C432   1.352       .  D
C431        H433   1.087       .  S
C432        H434   1.086       .  S
C435        C436   1.345       .  D
C435        H437   1.084       .  S
C436        H438   1.086       .  S
C439        C440   1.336       .  D
C439        H441   1.087       .  S
C440        H442   1.087       .  S
C443        C444   1.336       .  D
C443        H445   1.086       .  S
C444        H446   1.087       .  S
C447        C448   1.344       .  D
C447        H449   1.088       .  S
C448        H450   1.086       .  S
C451        C452   1.351       .  D
C451        H453   1.087       .  S
C452        H454   1.085       .  S
C455        C456   1.360       .  D
C455        H457   1.084       .  S
C456        H458   1.086       .  S
C459        C460   1.355       .  D
C459        H461   1.086       .  S
C460        H462   1.076       .  S
C463        C464   1.355       .  D
C463        H465   1.086       .  S
C464        H466   1.084       .  S
C467        C468   1.340       .  D
C467        H469   1.086       .  S
C468        H470   1.086       .  S
C471        C472   1.352       .  D
C471        H473   1.087       .  S
C472        H474   1.081       .  S
C475        C476   1.348       .  D
C475        H477   1.086       .  S
C476        H478   1.074       .  S
C479        C480   1.352       .  D
C479        H481   1.081       .  S
C480        H482   1.086       .  S
C483        C484   1.346       .  D
C483        H485   1.085       .  S
C484        H486   1.087       .  S
C487        C488   1.341       .  D
C487        H489   1.087       .  S
C488        H490   1.080       .  S
C491        C492   1.336       .  D
C491        H493   1.087       .  S
C492        H494   1.079       .  S
C495        C496   1.350       .  D
C495        H497   1.086       .  S
C496        H498   1.086       .  S
C499        C500   1.347       .  D
C499        H501   1.086       .  S
C500        H502   1.084       .  S
C503        C504   1.336       .  D
C503        H505   1.087       .  S
C504        H506   1.087       .  S
C507        C508   1.346       .  D
C507        H509   1.086       .  S
C508        H510   1.085       .  S
C511        C512   1.337       .  D
C511        H513   1.086       .  S
C512        H514   1.083       .  S
C515        C516   1.353       .  D
C515        H517   1.086       .  S
C516        H518   1.085       .  S
C519        C520   1.335       .  D
C519        H521   1.087       .  S
C520        H522   1.086       .  S
C523        C524   1.340       .  D
C523        H525   1.087       .  S
C524        H526   1.086       .  S
C527        C528   1.345       .  D
C527        H529   1.087       .  S
C528        H530   1.086       .  S
C531        C532   1.340       .  D
C531        H533   1.086       .  S
C532        H534   1.087       .  S
