geometry optimzed in LAMMPS
_audit_creation_date              2020-11-30 
_audit_creation_method            'lammps2cif' 
_symmetry_space_group_name_H-M    'P1' 
_symmetry_Int_Tables_number       1 
_symmetry_cell_setting            triclinic 
loop_ 
_symmetry_equiv_pos_as_xyz 
  x,y,z 
_cell_length_a                    47.299063537208944 
_cell_length_b                    47.67240777574889 
_cell_length_c                    47.61699618558955 
_cell_angle_alpha                 89.62906012834414 
_cell_angle_beta                  89.19831832432008 
_cell_angle_gamma                 89.6173451645702 
loop_ 
_atom_site_label 
_atom_site_type_symbol 
_atom_site_fract_x 
_atom_site_fract_y 
_atom_site_fract_z 
_atom_site_charge 
C1          C  0.69460818  0.69932709  0.89724614     0.02610
C2          C  0.67012477  0.71111761  0.90950549    -0.13540
C3          C  0.65667281  0.69739408  0.93207209     0.00110
C4          C  0.66710155  0.67187813  0.94192973    -0.12060
C5          C  0.69185404  0.66038920  0.93071999     0.02610
C6          C  0.70548049  0.67385496  0.90792654    -0.11480
H7          H  0.66263668  0.73155538  0.90268887     0.08200
H8          H  0.65742826  0.66232617  0.96043276     0.05730
H9          H  0.72537576  0.66561909  0.89985321     0.05580
C10         C  0.86834780  0.68072192  0.70929219     0.02610
C11         C  0.88286971  0.69194373  0.68601809    -0.13540
C12         C  0.90911031  0.68064705  0.67720868     0.00110
C13         C  0.91906746  0.65625547  0.69057533    -0.12060
C14         C  0.90264517  0.64231050  0.71112486     0.02610
C15         C  0.87680299  0.65456677  0.71997884    -0.11480
H16         H  0.87489794  0.71104366  0.67649316     0.08200
H17         H  0.94008818  0.64845579  0.68554850     0.05730
H18         H  0.86427224  0.64492933  0.73654771     0.05580
C19         C  0.68934449  0.87525383  0.70908966     0.02610
C20         C  0.66312741  0.88435957  0.72020824    -0.13540
C21         C  0.64643389  0.90390247  0.70542678     0.00110
C22         C  0.65579890  0.91386699  0.67926084    -0.12060
C23         C  0.68224472  0.90597591  0.66824646     0.02610
C24         C  0.69864880  0.88591249  0.68284534    -0.11480
H25         H  0.65662840  0.87769915  0.74111127     0.08200
H26         H  0.64404321  0.93063917  0.66913705     0.05730
H27         H  0.71944884  0.88021094  0.67484594     0.05580
C28         C  0.74944833  0.78698417  0.80205956     0.01770
C29         C  0.76100387  0.76113267  0.81312450     0.01770
C30         C  0.78490164  0.74773811  0.79951282     0.01770
C31         C  0.79525597  0.75842127  0.77301301     0.01770
C32         C  0.78429075  0.78462696  0.76230378     0.01770
C33         C  0.75961833  0.79728907  0.77526288     0.01770
C34         C  0.34861332  0.38997161  0.92701181     0.02610
C35         C  0.33879598  0.37313100  0.90502195    -0.13540
C36         C  0.35236391  0.34746316  0.89856571     0.00110
C37         C  0.37598434  0.33896084  0.91417214    -0.12060
C38         C  0.38583883  0.35589865  0.93597537     0.02610
C39         C  0.37248850  0.38144696  0.94182000    -0.11480
H40         H  0.31958965  0.37903390  0.89425850     0.08200
H41         H  0.38568552  0.31865584  0.91036707     0.05730
H42         H  0.37938618  0.39369440  0.95955782     0.05580
C43         C  0.90986054  0.38574596  0.39375070     0.02610
C44         C  0.88958904  0.37358529  0.37647012    -0.13540
C45         C  0.87490779  0.34953138  0.38566554     0.00110
C46         C  0.88069458  0.33809551  0.41242283    -0.12060
C47         C  0.90229923  0.34950988  0.42887272     0.02610
C48         C  0.91507265  0.37438945  0.42008156    -0.11480
H49         H  0.88653317  0.38168437  0.35540226     0.08200
H50         H  0.87059805  0.31875464  0.41898966     0.05730
H51         H  0.93242273  0.38286526  0.43199233     0.05580
C52         C  0.39443819  0.90523981  0.39167696     0.02610
C53         C  0.38199976  0.88374441  0.37602888    -0.13540
C54         C  0.35983027  0.86772385  0.38769319     0.00110
C55         C  0.35075110  0.87298789  0.41551766    -0.12060
C56         C  0.36177965  0.89572032  0.43061386     0.02610
C57         C  0.38440110  0.91081005  0.41884635    -0.11480
H58         H  0.38836022  0.88064391  0.35430980     0.08200
H59         H  0.33302365  0.86137231  0.42419376     0.05730
H60         H  0.39254475  0.92885224  0.42980637     0.05580
C61         C  0.84613447  0.85290569  0.39522216     0.02610
C62         C  0.87170270  0.84156374  0.40541325    -0.13540
C63         C  0.88723742  0.85587013  0.42583804     0.00110
C64         C  0.87741522  0.88197190  0.43533527    -0.12060
C65         C  0.85143890  0.89305680  0.42639004     0.02610
C66         C  0.83602448  0.87860868  0.40599559    -0.11480
H67         H  0.87869863  0.82099319  0.39856124     0.08200
H68         H  0.88870642  0.89247102  0.45187625     0.05730
H69         H  0.81554016  0.88652870  0.39965913     0.05580
C70         C  0.88911697  0.86852478  0.65455850     0.02610
C71         C  0.87507696  0.84938178  0.67242396    -0.13540
C72         C  0.85124772  0.85792520  0.68815982     0.00110
C73         C  0.84136358  0.88569808  0.68561756    -0.12060
C74         C  0.85449617  0.90439125  0.66665231     0.02610
C75         C  0.87936541  0.89619993  0.65270564    -0.11480
H76         H  0.88224331  0.82776526  0.67355171     0.08200
H77         H  0.82174621  0.89178458  0.69601035     0.05730
H78         H  0.88927711  0.91044948  0.63775795     0.05580
C79         C  0.85461102  0.38001003  0.87873555     0.02610
C80         C  0.84238822  0.39710223  0.89955917    -0.13540
C81         C  0.85871210  0.41741114  0.91315797     0.00110
C82         C  0.88667987  0.42186487  0.90394897    -0.12060
C83         C  0.89882741  0.40596237  0.88215010     0.02610
C84         C  0.88314955  0.38366516  0.87115534    -0.11480
H85         H  0.82030965  0.39444721  0.90528574     0.08200
H86         H  0.89871892  0.43852915  0.91325313     0.05730
H87         H  0.89253293  0.37024700  0.85522955     0.05580
C88         C  0.89085739  0.63764876  0.87831399     0.02610
C89         C  0.87586865  0.65429983  0.85878341    -0.13540
C90         C  0.84903195  0.66539846  0.86584736     0.00110
C91         C  0.83577593  0.65678972  0.89105484    -0.12060
C92         C  0.85041673  0.63949009  0.90996979     0.02610
C93         C  0.87882891  0.63321213  0.90488576    -0.11480
H94         H  0.88469424  0.65841566  0.83812407     0.08200
H95         H  0.81394399  0.66253401  0.89535981     0.05730
H96         H  0.89035255  0.62111261  0.92037729     0.05580
C97         C  0.15324632  0.86092141  0.44456753     0.02610
C98         C  0.16294886  0.88824582  0.44836877    -0.13540
C99         C  0.18910468  0.89660436  0.43735674     0.00110
C100        C  0.20384367  0.87874102  0.41867691    -0.12060
C101        C  0.19315749  0.85192347  0.41258333     0.02610
C102        C  0.16824310  0.84283976  0.42627851    -0.11480
H103        H  0.15175680  0.90194744  0.46290628     0.08200
H104        H  0.22430797  0.88494853  0.41032217     0.05730
H105        H  0.16099459  0.82157020  0.42325771     0.05580
C106        C  0.19259204  0.88781544  0.66764240     0.02610
C107        C  0.17364282  0.87100250  0.65325424    -0.13540
C108        C  0.16267592  0.84672146  0.66541684     0.00110
C109        C  0.17403980  0.83616397  0.69026072    -0.12060
C110        C  0.19516274  0.85128475  0.70376111     0.02610
C111        C  0.20220021  0.87829202  0.69401184    -0.11480
H112        H  0.16718766  0.87661447  0.63220526     0.08200
H113        H  0.16770247  0.81572649  0.69810442     0.05730
H114        H  0.21660597  0.89072288  0.70609476     0.05580
O115        O  0.99073163  0.76721901  0.60931577    -0.80650
O116        O  0.04483896  0.76195166  0.49192921    -0.80680
O117        O  0.95132134  0.75175633  0.53429496    -0.80680
O118        O  0.05420763  0.72986615  0.58239238    -0.80630
O119        O  0.99062909  0.74637206  0.50940009    -0.80750
O120        O  0.04714590  0.76260579  0.61428404    -0.80670
O121        O  0.05124191  0.73100343  0.52425175    -0.80650
O122        O  0.98706378  0.73677049  0.57529638    -0.80690
C123        C  0.98192128  0.74375386  0.60038115     1.09040
C124        C  0.05581484  0.73887869  0.49944626     1.08920
C125        C  0.96382612  0.74169622  0.51284168     1.09060
C126        C  0.05553255  0.73804217  0.60771251     1.08940
O127        O  0.05555303  0.81592516  0.58691006    -0.80650
O128        O  0.99792018  0.79588718  0.48151201    -0.80730
O129        O  0.96300984  0.79351298  0.57434729    -0.80670
O130        O  0.07723588  0.78783948  0.52448381    -0.80650
O131        O  0.04004359  0.81539602  0.51571931    -0.80700
O132        O  0.99832733  0.82180434  0.58120011    -0.80660
O133        O  0.08380517  0.78049910  0.58059562    -0.80620
O134        O  0.97404033  0.80147117  0.52084872    -0.80690
Co135      Co  0.02286649  0.79170478  0.59524332     1.51530
Co136      Co  0.01515976  0.78255861  0.51527038     1.51690
Co137      Co  0.98459716  0.76767261  0.54791812     1.51570
Co138      Co  0.06398145  0.75772162  0.55259477     1.51470
O139        O  0.02526124  0.77568679  0.55580944    -1.42590
C140        C  0.07937262  0.80454949  0.59044645     1.08960
C141        C  0.97618425  0.80544854  0.49399400     1.09050
C142        C  0.97234667  0.81687526  0.58311853     1.08990
C143        C  0.06644124  0.81050559  0.51414753     1.08970
C144        C  0.38668089  0.68821105  0.94146216     0.02610
C145        C  0.37887904  0.66240231  0.95302937    -0.13540
C146        C  0.35947239  0.64459727  0.94022584     0.00110
C147        C  0.34293104  0.65692635  0.91851934    -0.12060
C148        C  0.34933223  0.68379110  0.90736503     0.02610
C149        C  0.37246600  0.69849273  0.91790507    -0.11480
H150        H  0.38757776  0.65735346  0.97311487     0.08200
H151        H  0.32396280  0.64696393  0.91139473     0.05730
H152        H  0.37781337  0.71891128  0.90930318     0.05580
C153        C  0.39393304  0.90187618  0.71061894     0.02610
C154        C  0.37831979  0.88564797  0.73059569    -0.13540
C155        C  0.35233871  0.87317293  0.72340982     0.00110
C156        C  0.33969036  0.88136161  0.69801157    -0.12060
C157        C  0.35478199  0.89809745  0.67864089     0.02610
C158        C  0.38328057  0.90368769  0.68342782    -0.11480
H159        H  0.38582308  0.88313584  0.75183087     0.08200
H160        H  0.31795374  0.87587261  0.69403202     0.05730
H161        H  0.39561650  0.91330143  0.66679130     0.05580
C162        C  0.26180627  0.78383969  0.78162812     0.01770
C163        C  0.28729453  0.79364571  0.79469689     0.01770
C164        C  0.29715893  0.77976840  0.81991316     0.01770
C165        C  0.28342063  0.75446304  0.82994668     0.01770
C166        C  0.25754626  0.74546386  0.81712120     0.01770
C167        C  0.24814373  0.75854714  0.79152129     0.01770
C168        C  0.16765414  0.69240684  0.72494015     0.02610
C169        C  0.14999420  0.70528310  0.70491875    -0.13540
C170        C  0.12641317  0.69098130  0.69467483     0.00110
C171        C  0.11977295  0.66453942  0.70551025    -0.12060
C172        C  0.13823271  0.64999141  0.72339219     0.02610
C173        C  0.16286926  0.66403587  0.73228060    -0.11480
H174        H  0.15401535  0.72663425  0.69811123     0.08200
H175        H  0.10007240  0.65506035  0.69935183     0.05730
H176        H  0.17791534  0.65350508  0.74563699     0.05580
O177        O  0.96239919  0.54703065  0.79000085    -0.80650
O178        O  0.07380604  0.49371580  0.77610644    -0.80680
O179        O  0.05495838  0.55409117  0.75953864    -0.80680
O180        O  0.00457944  0.49136601  0.75404306    -0.80630
O181        O  0.08493390  0.54314936  0.79239565    -0.80750
O182        O  0.96819546  0.49204331  0.78365545    -0.80670
O183        O  0.04949001  0.45509684  0.76832521    -0.80650
O184        O  0.99469293  0.55788352  0.75795802    -0.80690
C185        C  0.96903600  0.55785498  0.76648659     1.09040
C186        C  0.07212293  0.46914468  0.76532755     1.08920
C187        C  0.08008081  0.55444217  0.76860104     1.09060
C188        C  0.97848603  0.48663300  0.75927494     1.08940
O189        O  0.99317074  0.48732626  0.83944361    -0.80650
O190        O  0.05444936  0.53988053  0.84478918    -0.80730
O191        O  0.99519303  0.58058903  0.81302470    -0.80670
O192        O  0.05117582  0.47096603  0.82231404    -0.80650
O193        O  0.08902325  0.49633127  0.82960746    -0.80700
O194        O  0.98880110  0.54654273  0.84344381    -0.80660
O195        O  0.00226736  0.45902217  0.80471404    -0.80620
O196        O  0.05208326  0.57653201  0.81629690    -0.80690
Co197      Co  0.98072724  0.51836999  0.81426757     1.51530
Co198      Co  0.05931171  0.51500810  0.81177572     1.51690
Co199      Co  0.02420639  0.56455377  0.78659747     1.51570
Co200      Co  0.03010190  0.48528685  0.78640921     1.51470
O201        O  0.02037829  0.52395514  0.79939453    -1.42590
C202        C  0.99178927  0.46295292  0.82907018     1.08960
C203        C  0.05967683  0.56556728  0.83961415     1.09050
C204        C  0.98560696  0.57213926  0.83657223     1.08990
C205        C  0.07512865  0.47413187  0.83420714     1.08970
C206        C  0.15654920  0.40176132  0.88388621     0.02610
C207        C  0.16369267  0.40336572  0.91216726    -0.13540
C208        C  0.19134451  0.39815992  0.92056238     0.00110
C209        C  0.20968359  0.38285852  0.90264612    -0.12060
C210        C  0.20078884  0.37550663  0.87543663     0.02610
C211        C  0.17516470  0.38711674  0.86549909    -0.11480
H212        H  0.14902617  0.41300572  0.92694473     0.08200
H213        H  0.23077757  0.37741844  0.90948541     0.05730
H214        H  0.17010623  0.38489241  0.84353780     0.05580
C215        C  0.17733605  0.64147272  0.92268161     0.02610
C216        C  0.19001385  0.66433766  0.90860662    -0.13540
C217        C  0.18081493  0.67259229  0.88178438     0.00110
C218        C  0.15657165  0.66025512  0.87056463    -0.12060
C219        C  0.14234966  0.63927167  0.88580598     0.02610
C220        C  0.15272518  0.63030495  0.91164899    -0.11480
H221        H  0.20861375  0.67403082  0.91718949     0.08200
H222        H  0.14993227  0.66568333  0.84953042     0.05730
H223        H  0.14333452  0.61190169  0.92134561     0.05580
C224        C  0.37398839  0.84853563  0.88532183     0.02610
C225        C  0.38125472  0.87364553  0.87133794    -0.13540
C226        C  0.40165903  0.89144225  0.88259847     0.00110
C227        C  0.41348808  0.88485731  0.90858138    -0.12060
C228        C  0.40761382  0.85938879  0.92196092     0.02610
C229        C  0.38744459  0.84132838  0.91059475    -0.10880
H230        H  0.37277816  0.87814210  0.85075040     0.08200
H231        H  0.43038798  0.89777625  0.91650287     0.05730
H232        H  0.38352986  0.82110231  0.92035740     0.05580
C233        C  0.64479232  0.89841457  0.88065172     0.02610
C234        C  0.66571480  0.88389409  0.86511811    -0.13540
C235        C  0.67594168  0.85767319  0.87453009     0.00110
C236        C  0.66517261  0.84634678  0.89994748    -0.12060
C237        C  0.64316677  0.86014446  0.91487113     0.02610
C238        C  0.63432876  0.88670421  0.90566952    -0.11480
H239        H  0.67243587  0.89191222  0.84476672     0.08200
H240        H  0.67209336  0.82569722  0.90669018     0.05730
H241        H  0.61651932  0.89685715  0.91611245     0.05580
C242        C  0.13403944  0.64915365  0.38268303     0.02610
C243        C  0.12174959  0.65936957  0.40740301    -0.13540
C244        C  0.13250836  0.68281048  0.42082460     0.00110
C245        C  0.15735568  0.69524001  0.40981304    -0.12060
C246        C  0.16878963  0.68661466  0.38378105     0.02610
C247        C  0.15741392  0.66294332  0.37058295    -0.11480
H248        H  0.10192524  0.65041152  0.41463871     0.08200
H249        H  0.16620505  0.71335526  0.42001207     0.05730
H250        H  0.16539395  0.65655780  0.35014175     0.05580
C251        C  0.26021608  0.78342911  0.33344443     0.01770
C252        C  0.28602865  0.79492662  0.32192210     0.01770
C253        C  0.29712855  0.78467363  0.29553319     0.01770
C254        C  0.28454360  0.76072282  0.28238064     0.01770
C255        C  0.25918468  0.74868166  0.29443608     0.01770
C256        C  0.24800227  0.75896319  0.32078994     0.01770
C257        C  0.34960519  0.65264379  0.16645682     0.02610
C258        C  0.37712300  0.66096493  0.15991091    -0.13540
C259        C  0.38597774  0.68801439  0.16619225     0.00110
C260        C  0.36924550  0.70427083  0.18477511    -0.12060
C261        C  0.34374469  0.69372473  0.19608149     0.02610
C262        C  0.33317188  0.66837084  0.18560883    -0.11480
H263        H  0.39014462  0.64779467  0.14642754     0.08200
H264        H  0.37567529  0.72530504  0.19014054     0.05730
H265        H  0.31198296  0.66167723  0.19124117     0.05580
O266        O  0.23074139  0.49749079  0.00726010    -0.80650
O267        O  0.26211686  0.55175827  0.11083537    -0.80680
O268        O  0.22556331  0.49169773  0.07611461    -0.80680
O269        O  0.22554638  0.56006354  0.02403217    -0.80630
O270        O  0.25969172  0.49482971  0.10705551    -0.80750
O271        O  0.25255718  0.54887359  0.98933367    -0.80670
O272        O  0.22971626  0.56438756  0.08063293    -0.80650
O273        O  0.23338791  0.45752748  0.03050533    -0.80690
C274        C  0.22384953  0.47131576  0.00976875     1.09040
C275        C  0.23906210  0.56470586  0.10538111     1.08920
C276        C  0.23491467  0.48713693  0.10067360     1.09060
C277        C  0.23184784  0.56307704  0.99863585     1.08940
O278        O  0.30702988  0.53560384  0.00985248    -0.80650
O279        O  0.31165507  0.49410981  0.07375580    -0.80730
O280        O  0.28516510  0.47477141  0.01553608    -0.80670
O281        O  0.28463954  0.58489874  0.07510179    -0.80650
O282        O  0.31543992  0.55124746  0.07974732    -0.80700
O283        O  0.27960441  0.49894618  0.97651325    -0.80660
O284        O  0.28612349  0.57645219  0.01846248    -0.80620
O285        O  0.27855354  0.46313973  0.06905744    -0.80690
Co286      Co  0.27037055  0.51668334  0.01124153     1.51530
Co287      Co  0.28663083  0.52302983  0.09016861     1.51690
Co288      Co  0.25387264  0.48798724  0.04502300     1.51570
Co289      Co  0.25660791  0.56864893  0.04928594     1.51470
O290        O  0.26736862  0.52733686  0.05239893    -1.42590
C291        C  0.30606134  0.56195674  0.00697343     1.08960
C292        C  0.30377144  0.46899018  0.07575544     1.09050
C293        C  0.28888570  0.47722233  0.98864441     1.08990
C294        C  0.30821373  0.57637673  0.08388084     1.08970
O295        O  0.98988443  0.48884902  0.34697470    -0.80650
O296        O  0.07649186  0.55168205  0.31222998    -0.80680
O297        O  0.04315489  0.48434962  0.33964262    -0.80680
O298        O  0.99095911  0.58889650  0.32002484    -0.80630
O299        O  0.07929117  0.49346073  0.31252765    -0.80750
O300        O  0.98470097  0.55038299  0.34537493    -0.80670
O301        O  0.03871390  0.56067259  0.33795371    -0.80650
O302        O  0.00168331  0.44978611  0.32420663    -0.80690
C303        C  0.98866142  0.46180400  0.34458915     1.09040
C304        C  0.06496942  0.56368858  0.33307598     1.08920
C305        C  0.06906379  0.48110716  0.33394014     1.09060
C306        C  0.97898839  0.57644967  0.34066179     1.08940
O307        O  0.95903018  0.54451961  0.29126848    -0.80650
O308        O  0.05847966  0.49479963  0.25558013    -0.80730
O309        O  0.99610225  0.47440218  0.27212770    -0.80670
O310        O  0.04177090  0.58508884  0.28414920    -0.80650
O311        O  0.05443787  0.55144982  0.25649787    -0.80700
O312        O  0.96044321  0.48981854  0.29486918    -0.80660
O313        O  0.99395099  0.56207028  0.26879598    -0.80620
O314        O  0.04680515  0.46114254  0.28439369    -0.80690
Co315      Co  0.97945824  0.51869859  0.31736646     1.51530
Co316      Co  0.06426973  0.52269537  0.28499746     1.51690
Co317      Co  0.01754996  0.48188724  0.30654309     1.51570
Co318      Co  0.01417797  0.55964575  0.30420509     1.51470
O319        O  0.02201415  0.52063245  0.29588596    -1.42590
C320        C  0.96810116  0.55799770  0.27034072     1.08960
C321        C  0.06054150  0.46963190  0.26306125     1.09050
C322        C  0.96997511  0.47512314  0.27530853     1.08990
C323        C  0.05604019  0.57694813  0.26302064     1.08970
C324        C  0.19046576  0.41452828  0.18831672     0.02610
C325        C  0.16258918  0.41830356  0.19752707    -0.13540
C326        C  0.15227976  0.40376960  0.22104262     0.00110
C327        C  0.16928594  0.38391378  0.23443535    -0.12060
C328        C  0.19702171  0.37910096  0.22482992     0.02610
C329        C  0.20770434  0.39451371  0.20172346    -0.11480
H330        H  0.14967247  0.43454051  0.18794532     0.08200
H331        H  0.16167218  0.37368308  0.25346537     0.05730
H332        H  0.22945072  0.39158511  0.19483309     0.05580
C333        C  0.85959805  0.40179889  0.17416617     0.02610
C334        C  0.88005465  0.41678386  0.18912129    -0.13540
C335        C  0.89270774  0.40521938  0.21313422     0.00110
C336        C  0.88269420  0.37949155  0.22367058    -0.12060
C337        C  0.85994709  0.36618331  0.21095382     0.02610
C338        C  0.85099384  0.37548422  0.18463730    -0.11480
H339        H  0.88564271  0.43786068  0.18259423     0.08200
H340        H  0.89072125  0.37115250  0.24324111     0.05730
H341        H  0.83532392  0.36339285  0.17377354     0.05580
C342        C  0.88613073  0.62729319  0.21605313     0.02610
C343        C  0.87573664  0.61938928  0.19013691    -0.13540
C344        C  0.85345672  0.63404590  0.17780223     0.00110
C345        C  0.84240362  0.65801367  0.19128349    -0.12060
C346        C  0.85237332  0.66576107  0.21789175     0.02610
C347        C  0.87460370  0.65052168  0.23004513    -0.11480
H348        H  0.88382772  0.60036163  0.18044233     0.08200
H349        H  0.82452231  0.66906467  0.18237596     0.05730
H350        H  0.88172429  0.65569289  0.25090884     0.05580
O351        O  0.78162947  0.55027593  0.98476511    -0.80650
O352        O  0.79864141  0.48965960  0.09050954    -0.80680
O353        O  0.81679413  0.55328143  0.07384209    -0.80680
O354        O  0.81036242  0.48578754  0.02639675    -0.80630
O355        O  0.78554034  0.54349014  0.10530315    -0.80750
O356        O  0.78257967  0.49364924  0.99000135    -0.80670
O357        O  0.78933410  0.45090647  0.06707152    -0.80650
O358        O  0.81514187  0.55665820  0.01529997    -0.80690
C359        C  0.80553943  0.56020639  0.99085383     1.09040
C360        C  0.80144746  0.46275279  0.08708085     1.08920
C361        C  0.80833627  0.55527207  0.09896438     1.09060
C362        C  0.80536811  0.48369766  0.00033898     1.08940
O363        O  0.72576496  0.49668013  0.01621083    -0.80650
O364        O  0.73139007  0.54368507  0.08203191    -0.80730
O365        O  0.76185068  0.58429218  0.01965420    -0.80670
O366        O  0.74193776  0.47892494  0.08021084    -0.80650
O367        O  0.75091291  0.50378785  0.11783354    -0.80700
O368        O  0.72827058  0.55444191  0.01200688    -0.80660
O369        O  0.75599342  0.46385555  0.02539496    -0.80620
O370        O  0.76083246  0.57888678  0.07588061    -0.80690
Co371      Co  0.75491459  0.52357832  0.00353904     1.51530
Co372      Co  0.76372978  0.51681312  0.08303662     1.51690
Co373      Co  0.78831306  0.56540538  0.04616473     1.51570
Co374      Co  0.77754074  0.48566716  0.05286506     1.51470
O375        O  0.77143411  0.52626896  0.04281332    -1.42590
C376        C  0.73318051  0.47139925  0.01445031     1.08960
C377        C  0.73730053  0.56940896  0.08514690     1.09050
C378        C  0.73819812  0.57883286  0.00898290     1.08990
C379        C  0.73837465  0.48354133  0.10699693     1.08970
C380        C  0.68875554  0.89499647  0.42345940     0.02610
C381        C  0.66322561  0.90694170  0.41459990    -0.13540
C382        C  0.65179924  0.89980985  0.38872535     0.00110
C383        C  0.66526882  0.87941215  0.37211861    -0.12060
C384        C  0.69065756  0.86691376  0.38105310     0.02610
C385        C  0.70229314  0.87468975  0.40682122    -0.11480
H386        H  0.65363553  0.92383644  0.42664207     0.08200
H387        H  0.65693229  0.87442053  0.35167267     0.05730
H388        H  0.72285658  0.86664085  0.41278163     0.05580
C389        C  0.89626761  0.69523211  0.42459693     0.02610
C390        C  0.87870137  0.70930762  0.40543488    -0.13540
C391        C  0.87374060  0.69753198  0.37890261     0.00110
C392        C  0.88851917  0.67306429  0.37102685    -0.12060
C393        C  0.90555596  0.65856707  0.39049323     0.02610
C394        C  0.90697348  0.66867896  0.41792468    -0.11480
H395        H  0.87013525  0.72981209  0.41054879     0.08200
H396        H  0.88705220  0.66566903  0.34963698     0.05730
H397        H  0.91953100  0.65749824  0.43327808     0.05580
C398        C  0.79447900  0.75774896  0.30580173     0.01770
C399        C  0.78208358  0.78263623  0.31762891     0.01770
C400        C  0.75574132  0.79303988  0.30703064     0.01770
C401        C  0.74379049  0.78139410  0.28211831     0.01770
C402        C  0.75640235  0.75673943  0.26956836     0.01770
C403        C  0.78245388  0.74562374  0.28089878     0.01770
C404        C  0.68984109  0.69322648  0.18767106     0.02610
C405        C  0.70086581  0.66681385  0.17975292    -0.13540
C406        C  0.68654952  0.65023853  0.16023038     0.00110
C407        C  0.66049224  0.65933457  0.15007473    -0.12060
C408        C  0.65096906  0.68675170  0.15471968     0.02610
C409        C  0.66552654  0.70359480  0.17407475    -0.11480
H410        H  0.72122824  0.65995266  0.18748311     0.08200
H411        H  0.64936677  0.64616962  0.13544784     0.05730
H412        H  0.65845876  0.72487909  0.17803406     0.05580
O413        O  0.55824038  0.81929024  0.01876892    -0.80650
O414        O  0.44896636  0.79862879  0.06801604    -0.80680
O415        O  0.49273807  0.79020894  0.99217590    -0.80680
O416        O  0.54165797  0.78796688  0.10863293    -0.80630
O417        O  0.48667785  0.81818226  0.02856719    -0.80750
O418        O  0.55132729  0.81899234  0.07698401    -0.80670
O419        O  0.48720050  0.80340262  0.09332180    -0.80650
O420        O  0.54952299  0.78751319  0.98738876    -0.80690
C421        C  0.56109222  0.81046839  0.99382604     1.09040
C422        C  0.46028648  0.80790593  0.08974748     1.08920
C423        C  0.48415453  0.81343793  0.00251816     1.09060
C424        C  0.55389340  0.81043145  0.10183469     1.08940
O425        O  0.57634723  0.76213230  0.07807747    -0.80650
O426        O  0.46072107  0.76541523  0.02595673    -0.80730
O427        O  0.55058702  0.73351214  0.01394900    -0.80670
O428        O  0.49784820  0.75468961  0.11870160    -0.80650
O429        O  0.47396651  0.74981363  0.07974506    -0.80700
O430        O  0.58261049  0.76534281  0.02156498    -0.80660
O431        O  0.53891583  0.73494778  0.08368538    -0.80620
O432        O  0.49191044  0.73391536  0.01633337    -0.80690
Co433      Co  0.56432116  0.79126872  0.04897170     1.51530
Co434      Co  0.48363697  0.78523339  0.05406724     1.51690
Co435      Co  0.52114345  0.76150031  0.00524721     1.51570
Co436      Co  0.51348138  0.76813754  0.08510551     1.51470
O437        O  0.52418404  0.77652904  0.04495607    -1.42590
C438        C  0.56506149  0.73941326  0.08707728     1.08960
C439        C  0.46671199  0.74243011  0.01457207     1.09050
C440        C  0.57567242  0.74208460  0.01111383     1.08990
C441        C  0.47711675  0.74433563  0.10634588     1.08970
C442        C  0.39911839  0.85422816  0.18349790     0.02610
C443        C  0.38103991  0.84078367  0.20259954    -0.13540
C444        C  0.37568426  0.85264116  0.22902393     0.00110
C445        C  0.38992302  0.87721193  0.23673168    -0.12060
C446        C  0.40803606  0.89094516  0.21732753     0.02610
C447        C  0.41052115  0.88037162  0.19013254    -0.11480
H448        H  0.37237951  0.82045303  0.19757010     0.08200
H449        H  0.38767016  0.88497866  0.25798717     0.05730
H450        H  0.42377794  0.89099961  0.17476673     0.05580
C451        C  0.63504054  0.89342172  0.21177439     0.02610
C452        C  0.65298708  0.87673517  0.22871107    -0.13540
C453        C  0.66416678  0.85115421  0.21860908     0.00110
C454        C  0.65464681  0.84071321  0.19304722    -0.12060
C455        C  0.63602933  0.85665564  0.17682832     0.02610
C456        C  0.62927382  0.88408717  0.18464130    -0.11480
H457        H  0.65782537  0.88318038  0.24986035     0.08200
H458        H  0.66017437  0.81953694  0.18675832     0.05730
H459        H  0.61641541  0.89676087  0.17078477     0.05580
C460        C  0.65660986  0.35233510  0.16529302     0.02610
C461        C  0.66196604  0.37995647  0.15706570    -0.13540
C462        C  0.68500871  0.39507176  0.16736814     0.00110
C463        C  0.70439330  0.37975974  0.18430782    -0.12060
C464        C  0.69886612  0.35204940  0.19325826     0.02610
C465        C  0.67457517  0.33859080  0.18391708    -0.11480
H466        H  0.64863650  0.38817804  0.14111241     0.08200
H467        H  0.72442292  0.38858969  0.19000977     0.05730
H468        H  0.67035594  0.31708588  0.19012509     0.05580
C469        C  0.78752101  0.26177965  0.32438930     0.01770
C470        C  0.80041428  0.28602596  0.31165357     0.01770
C471        C  0.79024077  0.29620917  0.28511527     0.01770
C472        C  0.76439720  0.28551102  0.27385507     0.01770
C473        C  0.75115183  0.26145746  0.28672799     0.01770
C474        C  0.76177551  0.25073826  0.31304139     0.01770
C475        C  0.64613784  0.15370453  0.39091560     0.02610
C476        C  0.65521837  0.14422569  0.41718686    -0.13540
C477        C  0.68132534  0.15251703  0.42769737     0.00110
C478        C  0.69792411  0.17177646  0.41234827    -0.12060
C479        C  0.68862275  0.18224947  0.38632844     0.02610
C480        C  0.66229610  0.17372839  0.37614527    -0.11480
H481        H  0.64374047  0.12751538  0.42778758     0.08200
H482        H  0.71891026  0.17687725  0.41952250     0.05730
H483        H  0.65573172  0.18055212  0.35546206     0.05580
O484        O  0.49689296  0.96111495  0.28967334    -0.80650
O485        O  0.54418884  0.06930978  0.27105187    -0.80680
O486        O  0.48588558  0.05150023  0.26243259    -0.80680
O487        O  0.58426877  0.99507273  0.28915024    -0.80630
O488        O  0.49542125  0.08431797  0.29184948    -0.80750
O489        O  0.54723457  0.97538618  0.27417375    -0.80670
O490        O  0.58224007  0.05019154  0.28568530    -0.80650
O491        O  0.48351396  0.99517455  0.26144827    -0.80690
C492        C  0.48281301  0.96967647  0.26874222     1.09040
C493        C  0.57036374  0.06737307  0.26944542     1.08920
C494        C  0.48262460  0.07629942  0.27012615     1.09060
C495        C  0.57330040  0.97919980  0.27186489     1.08940
O496        O  0.54516242  0.95213870  0.32704703    -0.80650
O497        O  0.50760626  0.05750366  0.34479443    -0.80730
O498        O  0.46425225  0.99428087  0.31736097    -0.80670
O499        O  0.56281019  0.05455302  0.34350624    -0.80650
O500        O  0.54677519  0.09308994  0.32300909    -0.80700
O501        O  0.50036285  0.98488657  0.34376126    -0.80660
O502        O  0.55803506  0.99303952  0.34481942    -0.80620
O503        O  0.46831117  0.05065484  0.32212338    -0.80690
Co504      Co  0.52624809  0.98308191  0.30976361     1.51530
Co505      Co  0.52756814  0.06137252  0.30824213     1.51690
Co506      Co  0.47868228  0.02318330  0.29118038     1.51570
Co507      Co  0.56586850  0.02296497  0.31409668     1.51470
O508        O  0.52155987  0.02219267  0.29808076    -1.42590
C509        C  0.56087569  0.96599514  0.34348157     1.08960
C510        C  0.48124299  0.06057251  0.34313522     1.09050
C511        C  0.47408320  0.98259317  0.33878246     1.08990
C512        C  0.56386656  0.08143677  0.33981463     1.08970
O513        O  0.49432648  0.31796015  0.01336994    -0.80650
O514        O  0.54503185  0.29110717  0.11589648    -0.80680
O515        O  0.46610697  0.28305154  0.07336294    -0.80680
O516        O  0.58356455  0.28283193  0.02340972    -0.80630
O517        O  0.50125639  0.31109255  0.08309878    -0.80750
O518        O  0.55320916  0.31572028  0.01620285    -0.80670
O519        O  0.56944999  0.29553153  0.07644099    -0.80650
O520        O  0.46192872  0.28530539  0.01762471    -0.80690
C521        C  0.46910947  0.31001758  0.01035608     1.09040
C522        C  0.56690585  0.30001409  0.10318678     1.08920
C523        C  0.47517828  0.30446113  0.08585222     1.09060
C524        C  0.57796442  0.30628419  0.01254451     1.08940
O525        O  0.55185498  0.26214636  0.98846955    -0.80650
O526        O  0.50170986  0.25744564  0.10352707    -0.80730
O527        O  0.48872391  0.23134090  0.01259773    -0.80670
O528        O  0.59312588  0.24503725  0.06462441    -0.80650
O529        O  0.55406641  0.24280982  0.08947659    -0.80700
O530        O  0.49574728  0.26573643  0.98295411    -0.80660
O531        O  0.55637054  0.23070656  0.02220528    -0.80620
O532        O  0.49027429  0.22778897  0.07168245    -0.80690
Co533      Co  0.52365939  0.29017490  0.00294386     1.51530
Co534      Co  0.52905541  0.27923322  0.08185703     1.51690
Co535      Co  0.47961182  0.25697720  0.04370966     1.51570
Co536      Co  0.55949924  0.26137375  0.05012312     1.51470
O537        O  0.51954616  0.27235681  0.04157428    -1.42590
C538        C  0.55982440  0.23790411  0.99658662     1.08960
C539        C  0.48909657  0.23550594  0.09706229     1.09050
C540        C  0.48629641  0.24132036  0.98805591     1.08990
C541        C  0.58065870  0.23654590  0.08665375     1.08970
C542        C  0.41163058  0.19056897  0.18006723     0.02610
C543        C  0.42258217  0.16660735  0.19267824    -0.13540
C544        C  0.40790772  0.15291609  0.21435392     0.00110
C545        C  0.38200333  0.16430751  0.22385104    -0.12060
C546        C  0.37322973  0.19073029  0.21407929     0.02610
C547        C  0.38724841  0.20319882  0.19113697    -0.11480
H548        H  0.44337985  0.15929074  0.18609340     0.08200
H549        H  0.37006484  0.15419096  0.24054973     0.05730
H550        H  0.38056977  0.22360677  0.18343839     0.05580
C551        C  0.40282825  0.14352344  0.88288304     0.02610
C552        C  0.41887174  0.15985039  0.90144996    -0.13540
C553        C  0.41047029  0.18676968  0.90992304     0.00110
C554        C  0.38669466  0.19918264  0.89777106    -0.12060
C555        C  0.37314177  0.18581958  0.87565265     0.02610
C556        C  0.38126651  0.15821565  0.86822443    -0.11480
H557        H  0.43906184  0.15252885  0.90879461     0.08200
H558        H  0.38041905  0.22027833  0.90363992     0.05730
H559        H  0.37208352  0.14975580  0.84961756     0.05580
C560        C  0.63931273  0.18897760  0.91718375     0.02610
C561        C  0.63027423  0.16322289  0.90704964    -0.13540
C562        C  0.64112569  0.15235331  0.88196175     0.00110
C563        C  0.66285249  0.16669640  0.86743351    -0.12060
C564        C  0.67330884  0.19215723  0.87799435     0.02610
C565        C  0.66126049  0.20328040  0.90290375    -0.11480
H566        H  0.61240787  0.15295427  0.91720660     0.08200
H567        H  0.67045554  0.15895072  0.84734585     0.05730
H568        H  0.66769577  0.22374436  0.91013692     0.05580
O569        O  0.56163547  0.00208093  0.75418344    -0.80650
O570        O  0.48409895  0.03795095  0.75768468    -0.80680
O571        O  0.49745709  0.97677702  0.76907654    -0.80680
O572        O  0.54300330  0.08997456  0.78940240    -0.80630
O573        O  0.45465580  0.99224396  0.77858405    -0.80750
O574        O  0.55555698  0.05945060  0.75789216    -0.80670
O575        O  0.48676375  0.07623478  0.78361316    -0.80650
O576        O  0.55072873  0.96700068  0.78166160    -0.80690
C577        C  0.56374510  0.97633832  0.76026273     1.09040
C578        C  0.47869184  0.06381374  0.76136616     1.08920
C579        C  0.47055685  0.97509014  0.76565007     1.09060
C580        C  0.55652479  0.08412953  0.76707699     1.08940
O581        O  0.57991643  0.05803357  0.81371163    -0.80650
O582        O  0.48112558  0.98974598  0.82828243    -0.80730
O583        O  0.54684250  0.98660517  0.83727922    -0.80670
O584        O  0.48923384  0.05021162  0.84045844    -0.80650
O585        O  0.45734067  0.04012402  0.81124411    -0.80700
O586        O  0.58272337  0.00010748  0.81085439    -0.80660
O587        O  0.54414789  0.06270691  0.84331430    -0.80620
O588        O  0.50556016  0.95176157  0.81892670    -0.80690
Co589      Co  0.56701281  0.02976010  0.78464479     1.51530
Co590      Co  0.48556351  0.01387891  0.79173402     1.51690
Co591      Co  0.52057231  0.98609999  0.80491288     1.51570
Co592      Co  0.51597603  0.06708575  0.81357071     1.51470
O593        O  0.52569558  0.02796139  0.79835271    -1.42590
C594        C  0.56956680  0.06728111  0.83675120     1.08960
C595        C  0.48481118  0.96308255  0.83168005     1.09050
C596        C  0.57314226  0.98548244  0.83117974     1.08990
C597        C  0.46368249  0.05127231  0.83429020     1.08970
C598        C  0.69179754  0.38923729  0.93798507     0.02610
C599        C  0.70793985  0.37792452  0.91585465    -0.13540
C600        C  0.69779769  0.35483440  0.90092724     0.00110
C601        C  0.67119544  0.34344159  0.90811705    -0.12060
C602        C  0.65567088  0.35406877  0.93119552     0.02610
C603        C  0.66564863  0.37773592  0.94491874    -0.11480
H604        H  0.72900117  0.38580534  0.91149875     0.08200
H605        H  0.66393453  0.32487372  0.89746031     0.05730
H606        H  0.65426742  0.38572459  0.96316410     0.05580
C607        C  0.90826133  0.40058036  0.71218584     0.02610
C608        C  0.89015928  0.38593751  0.73119542    -0.13540
C609        C  0.87858098  0.35967867  0.72376163     0.00110
C610        C  0.88674527  0.34785833  0.69778436    -0.12060
C611        C  0.90445303  0.36230297  0.67894643     0.02610
C612        C  0.91306916  0.38942162  0.68534280    -0.11480
H613        H  0.88605465  0.39430517  0.75193732     0.08200
H614        H  0.88061081  0.32664462  0.69279473     0.05730
H615        H  0.92684720  0.40039161  0.67062493     0.05580
C616        C  0.79428777  0.29629816  0.81408212     0.01770
C617        C  0.76810676  0.28586334  0.82611344     0.01770
C618        C  0.75548059  0.26107419  0.81508930     0.01770
C619        C  0.76644790  0.24934135  0.78962294     0.01770
C620        C  0.79258093  0.25945332  0.77779116     0.01770
C621        C  0.80647795  0.28378363  0.78904368     0.01770
C622        C  0.69327034  0.17389869  0.72662051     0.02610
C623        C  0.66585091  0.16998880  0.73749428    -0.13540
C624        C  0.64664047  0.15328112  0.72321576     0.00110
C625        C  0.65419850  0.14228756  0.69682727    -0.12060
C626        C  0.68235730  0.14290312  0.68707795     0.02610
C627        C  0.70187267  0.15913061  0.70228894    -0.11480
H628        H  0.66009442  0.17850367  0.75785826     0.08200
H629        H  0.63864044  0.13048604  0.68546243     0.05730
H630        H  0.72378998  0.16010626  0.69549438     0.05580
O631        O  0.77749258  0.00238876  0.60655083    -0.80650
O632        O  0.78181035  0.05433779  0.48970075    -0.80680
O633        O  0.81042419  0.98767410  0.51832540    -0.80680
O634        O  0.78804184  0.09422757  0.56874708    -0.80630
O635        O  0.78156061  0.99630275  0.48392275    -0.80750
O636        O  0.79605535  0.05352311  0.58913141    -0.80670
O637        O  0.80730194  0.06063856  0.52733147    -0.80650
O638        O  0.80818238  0.99233596  0.57466521    -0.80690
C639        C  0.79983365  0.98960531  0.59952070     1.09040
C640        C  0.80284163  0.06541096  0.50160064     1.08920
C641        C  0.80377693  0.98449006  0.49300113     1.09060
C642        C  0.80048746  0.08013982  0.58760859     1.08940
O643        O  0.74548765  0.05020877  0.61594097    -0.80650
O644        O  0.72512464  0.99418753  0.50640790    -0.80730
O645        O  0.74870405  0.97194986  0.57485820    -0.80670
O646        O  0.75180742  0.08438133  0.52339096    -0.80650
O647        O  0.72344647  0.05165743  0.51008973    -0.80700
O648        O  0.72332364  0.01001436  0.58291950    -0.80660
O649        O  0.73695691  0.07155565  0.57622141    -0.80620
O650        O  0.75595415  0.96201607  0.51868871    -0.80690
Co651      Co  0.75846332  0.03210273  0.58266108     1.51530
Co652      Co  0.75341443  0.02420736  0.50048298     1.51690
Co653      Co  0.78023769  0.98128618  0.54669023     1.51570
Co654      Co  0.77317820  0.06176269  0.55192575     1.51470
O655        O  0.76544866  0.02116494  0.54177276    -1.42590
C656        C  0.73357160  0.07015375  0.60315905     1.08960
C657        C  0.73372246  0.96901169  0.50595498     1.09050
C658        C  0.72726374  0.98394143  0.58619329     1.08990
C659        C  0.73041952  0.07706328  0.50974287     1.08970
C660        C  0.85412029  0.15200117  0.43347651     0.02610
C661        C  0.84198548  0.16865604  0.41220066    -0.13540
C662        C  0.85201844  0.19599543  0.40677285     0.00110
C663        C  0.87495747  0.20614352  0.42222377    -0.12060
C664        C  0.88756153  0.18913252  0.44291444     0.02610
C665        C  0.87726660  0.16219441  0.44801968    -0.11480
H666        H  0.82338296  0.16128902  0.40152845     0.08200
H667        H  0.88223703  0.22742718  0.41891484     0.05730
H668        H  0.88578008  0.15000889  0.46532030     0.05580
C669        C  0.89733422  0.18037328  0.67630340     0.02610
C670        C  0.88134152  0.19252577  0.69803259    -0.13540
C671        C  0.85371264  0.18333315  0.70376367     0.00110
C672        C  0.84267988  0.16119478  0.68808678    -0.12060
C673        C  0.85925635  0.14829787  0.66701605     0.02610
C674        C  0.88719491  0.15672297  0.66277088    -0.11480
H675        H  0.88900594  0.21132997  0.70803267     0.08200
H676        H  0.82078184  0.15521223  0.69111413     0.05730
H677        H  0.89961217  0.14744358  0.64586637     0.05580
C678        C  0.36069243  0.14065732  0.67015883     0.02610
C679        C  0.38568838  0.12796624  0.67955229    -0.13540
C680        C  0.39717377  0.13518434  0.70549448     0.00110
C681        C  0.38396971  0.15632045  0.72168187    -0.12060
C682        C  0.35899491  0.16957496  0.71232012     0.02610
C683        C  0.34784793  0.16192224  0.68625446    -0.11480
H684        H  0.39456231  0.11033605  0.66807157     0.08200
H685        H  0.39198143  0.16108407  0.74230772     0.05730
H686        H  0.32774591  0.17066133  0.67973336     0.05580
C687        C  0.28935661  0.28230334  0.81665936     0.01770
C688        C  0.26587960  0.29648918  0.80375550     0.01770
C689        C  0.25477618  0.28610310  0.77716489     0.01770
C690        C  0.26193036  0.25749854  0.76872176     0.01770
C691        C  0.28733136  0.24477775  0.78063038     0.01770
C692        C  0.29939363  0.25610467  0.80568586     0.01770
O693        O  0.28801741  0.96340816  0.52578639    -0.80650
O694        O  0.28213496  0.08111682  0.57643835    -0.80680
O695        O  0.31384459  0.05471376  0.50716072    -0.80680
O696        O  0.29617963  0.00282635  0.61737417    -0.80630
O697        O  0.28072461  0.08522732  0.51947509    -0.80750
O698        O  0.30591256  0.98168020  0.57768704    -0.80670
O699        O  0.31255688  0.04662526  0.58385985    -0.80650
O700        O  0.31638730  0.99618280  0.51134049    -0.80690
C701        C  0.30918742  0.97076610  0.51106899     1.09040
C702        C  0.30489259  0.07199113  0.58749591     1.08920
C703        C  0.30439777  0.07971759  0.50774821     1.09060
C704        C  0.30883780  0.98302543  0.60459341     1.08940
O705        O  0.25693775  0.95396675  0.57580104    -0.80650
O706        O  0.22773059  0.05460053  0.51830716    -0.80730
O707        O  0.25702186  0.99459507  0.49409361    -0.80670
O708        O  0.25731282  0.04585918  0.60709374    -0.80650
O709        O  0.22685993  0.05231166  0.57468853    -0.80700
O710        O  0.23320810  0.98542242  0.53328087    -0.80660
O711        O  0.24588509  0.99483882  0.59350853    -0.80620
O712        O  0.25893414  0.05088341  0.48481532    -0.80690
Co713      Co  0.26834982  0.98684546  0.55550706     1.51530
Co714      Co  0.25495672  0.06580440  0.54705749     1.51690
Co715      Co  0.28632625  0.02402816  0.50245592     1.51570
Co716      Co  0.28118036  0.01925448  0.58452437     1.51470
O717        O  0.27343815  0.02758543  0.54366032    -1.42590
C718        C  0.24402061  0.96804282  0.59437630     1.08960
C719        C  0.23437561  0.05791863  0.49286960     1.09050
C720        C  0.23649378  0.98266233  0.50694254     1.08990
C721        C  0.23417249  0.05635413  0.59946461     1.08970
O722        O  0.96416951  0.25578217  0.52901048    -0.80650
O723        O  0.07872950  0.25078773  0.57774500    -0.80680
O724        O  0.05533816  0.22287723  0.51582274    -0.80680
O725        O  0.99997872  0.24878226  0.62052071    -0.80630
O726        O  0.08618792  0.25617219  0.52119162    -0.80750
O727        O  0.97493560  0.24652856  0.58190393    -0.80670
O728        O  0.03978377  0.22578731  0.58546703    -0.80650
O729        O  0.99552215  0.22289379  0.52097007    -0.80690
C730        C  0.97002592  0.23138216  0.52005447     1.09040
C731        C  0.06634176  0.22876162  0.58750169     1.08920
C732        C  0.07980206  0.23258881  0.51128482     1.09060
C733        C  0.97824129  0.24048518  0.60818940     1.08940
O734        O  0.95546973  0.29785648  0.56877592    -0.80650
O735        O  0.05996529  0.30917432  0.51965837    -0.80730
O736        O  0.99571854  0.27593124  0.49290976    -0.80670
O737        O  0.04657529  0.27856814  0.60950826    -0.80650
O738        O  0.05611918  0.30922439  0.57745455    -0.80700
O739        O  0.99171546  0.30854496  0.52462509    -0.80660
O740        O  0.99475706  0.29876612  0.59318786    -0.80620
O741        O  0.05173937  0.27698226  0.48812346    -0.80690
Co742      Co  0.98774078  0.27917149  0.55416498     1.51530
Co743      Co  0.06759027  0.28110336  0.54927592     1.51690
Co744      Co  0.02473564  0.24980671  0.50724443     1.51570
Co745      Co  0.01687831  0.26051791  0.58637718     1.51470
O746        O  0.02755845  0.26684133  0.54601426    -1.42590
C747        C  0.96868752  0.30671706  0.58997660     1.08960
C748        C  0.06097818  0.30122982  0.49430943     1.09050
C749        C  0.98682088  0.29989981  0.49997722     1.08990
C750        C  0.05795713  0.30142537  0.60257315     1.08970
C751        C  0.15909731  0.18995862  0.42881508     0.02610
C752        C  0.16335986  0.16136593  0.43351812    -0.13540
C753        C  0.18990663  0.14920854  0.42850535     0.00110
C754        C  0.20998212  0.16448910  0.41249088    -0.12060
C755        C  0.20365250  0.19183715  0.40301012     0.02610
C756        C  0.17860256  0.20497304  0.41230360    -0.11480
H757        H  0.14740400  0.14968063  0.44512659     0.08200
H758        H  0.23049389  0.15551312  0.40770674     0.05730
H759        H  0.17489673  0.22698231  0.40773774     0.05580
C760        C  0.13049359  0.35491025  0.68255958     0.02610
C761        C  0.12544334  0.38159696  0.69351735    -0.13540
C762        C  0.14488124  0.39448301  0.71134888     0.00110
C763        C  0.16909217  0.37897933  0.71905072    -0.12060
C764        C  0.17210931  0.35055179  0.71173514     0.02610
C765        C  0.15385747  0.33931008  0.69200939    -0.11480
H766        H  0.10585205  0.39216288  0.68825822     0.08200
H767        H  0.18562282  0.38839306  0.73099311     0.05730
H768        H  0.15739745  0.31810409  0.68469600     0.05580
C769        C  0.19534695  0.19584597  0.68416800     0.02610
C770        C  0.20551986  0.16801065  0.68108946    -0.13540
C771        C  0.19145261  0.14873251  0.66416577     0.00110
C772        C  0.16560380  0.15606856  0.65242051    -0.12060
C773        C  0.15554175  0.18358067  0.65356279     0.02610
C774        C  0.17063849  0.20365780  0.66922353    -0.11480
H775        H  0.22500396  0.16146114  0.69087213     0.08200
H776        H  0.15472755  0.14088940  0.63964921     0.05730
H777        H  0.16319463  0.22517723  0.66965072     0.05580
C778        C  0.67362713  0.19210028  0.22102545     0.02610
C779        C  0.66279660  0.16687558  0.23226836    -0.13540
C780        C  0.64227199  0.15170225  0.21770456     0.00110
C781        C  0.63319140  0.16153107  0.19150774    -0.12060
C782        C  0.64308829  0.18700213  0.18032121     0.02610
C783        C  0.66367926  0.20201134  0.19495300    -0.11480
H784        H  0.66901930  0.16000910  0.25303721     0.08200
H785        H  0.61637660  0.15060894  0.18095223     0.05730
H786        H  0.67077036  0.22211406  0.18688655     0.05580
C787        C  0.19023133  0.67507682  0.22507566     0.02610
C788        C  0.20100556  0.66500198  0.19929619    -0.13540
C789        C  0.18731267  0.64308248  0.18537195     0.00110
C790        C  0.16112573  0.63400030  0.19573686    -0.12060
C791        C  0.15027379  0.64329601  0.22159767     0.02610
C792        C  0.16486814  0.66404251  0.23619689    -0.11480
H793        H  0.22132894  0.67231298  0.19155077     0.08200
H794        H  0.15051040  0.61706400  0.18516067     0.05730
H795        H  0.15756128  0.67035827  0.25689496     0.05580
C796        C  0.35197917  0.35925663  0.19204591     0.02610
C797        C  0.37890483  0.34833492  0.18471337    -0.13540
C798        C  0.39366152  0.35854153  0.16083111     0.00110
C799        C  0.38229634  0.38088002  0.14562951    -0.12060
C800        C  0.35596905  0.39218369  0.15268994     0.02610
C801        C  0.34081552  0.38165518  0.17606122    -0.11480
H802        H  0.38705898  0.33019015  0.19586751     0.08200
H803        H  0.39283476  0.38788063  0.12645988     0.05730
H804        H  0.31978093  0.38964907  0.18072066     0.05580
C805        C  0.35878247  0.16891592  0.37626237     0.02610
C806        C  0.38044405  0.15060095  0.36676156    -0.13540
C807        C  0.39254587  0.13065644  0.38521296     0.00110
C808        C  0.38116969  0.12789482  0.41218561    -0.12060
C809        C  0.35893486  0.14486413  0.42195072     0.02610
C810        C  0.34930620  0.16680419  0.40439405    -0.11480
H811        H  0.38800084  0.15207901  0.34525331     0.08200
H812        H  0.38956526  0.11163402  0.42561429     0.05730
H813        H  0.33341015  0.18142163  0.41199547     0.05580
C814        C  0.17594152  0.35682735  0.37987477     0.02610
C815        C  0.16037612  0.34386191  0.40182996    -0.13540
C816        C  0.13637105  0.35708900  0.41372883     0.00110
C817        C  0.12826806  0.38357441  0.40370977    -0.12060
C818        C  0.14365382  0.39736527  0.38242449     0.02610
C819        C  0.16804788  0.38408964  0.37098859    -0.11480
H820        H  0.16596510  0.32279009  0.40849055     0.08200
H821        H  0.10869189  0.39284937  0.41148175     0.05730
H822        H  0.17934761  0.39383280  0.35359388     0.05580
C823        C  0.28996076  0.28999332  0.27474363     0.01770
C824        C  0.26548256  0.30029003  0.28961433     0.01770
C825        C  0.25575591  0.28643426  0.31488694     0.01770
C826        C  0.26870881  0.26016978  0.32333071     0.01770
C827        C  0.29316779  0.24958655  0.30830765     0.01770
C828        C  0.30221533  0.26343809  0.28276089     0.01770
C829        C  0.22615868  0.34144316  0.36725180    -0.02360
C830        C  0.19681711  0.33962177  0.36320798     0.07320
C831        C  0.18683219  0.31949088  0.34444219    -0.02480
C832        C  0.20526667  0.29969487  0.33204512    -0.02480
C833        C  0.23506310  0.30231288  0.33409032     0.07450
C834        C  0.24516672  0.32353424  0.35231607    -0.02680
Br835      Br  0.28507767  0.32817796  0.35794647    -0.01220
Br836      Br  0.24013814  0.36910794  0.39283095    -0.01300
Br837      Br  0.18743331  0.26758076  0.31673394    -0.01260
Br838      Br  0.14769459  0.32003565  0.33375898    -0.01240
C839        C  0.33357390  0.23705591  0.34127317    -0.02360
C840        C  0.31240762  0.22773465  0.32261426     0.07320
C841        C  0.30961900  0.19808734  0.31966428    -0.02480
C842        C  0.32501695  0.17912763  0.33685361    -0.02480
C843        C  0.34439097  0.18898509  0.35657640     0.07450
C844        C  0.34902968  0.21799762  0.35821876    -0.02680
Br845      Br  0.37681173  0.23153874  0.38407952    -0.01220
Br846      Br  0.34233079  0.27613569  0.34401600    -0.01300
Br847      Br  0.31888499  0.13910937  0.33428014    -0.01260
Br848      Br  0.28711231  0.18155612  0.29132756    -0.01240
C849        C  0.32594340  0.32813078  0.26195974    -0.02360
C850        C  0.30475908  0.30901399  0.25323928     0.07320
C851        C  0.29729817  0.30978718  0.22443808    -0.02480
C852        C  0.31115190  0.32787696  0.20520056    -0.02480
C853        C  0.33414905  0.34428001  0.21356132     0.07450
C854        C  0.34112664  0.34469157  0.24214375    -0.02680
Br855      Br  0.37135771  0.36868257  0.25409178    -0.01220
Br856      Br  0.33518524  0.33232227  0.30101166    -0.01300
Br857      Br  0.29831335  0.32983797  0.16697177    -0.01260
Br858      Br  0.26860328  0.28650799  0.20944768    -0.01240
C859        C  0.23447001  0.22065182  0.33506615    -0.02360
C860        C  0.25387459  0.24114191  0.34450877     0.07320
C861        C  0.25886733  0.24238387  0.37383175    -0.02480
C862        C  0.24341242  0.22536433  0.39292789    -0.02480
C863        C  0.22279517  0.20689958  0.38320714     0.07450
C864        C  0.21894426  0.20400440  0.35426786    -0.02680
Br865      Br  0.19151095  0.17733261  0.34111034    -0.01220
Br866      Br  0.22713990  0.21525174  0.29595981    -0.01300
Br867      Br  0.25065035  0.22681253  0.43265534    -0.01260
Br868      Br  0.28704901  0.26618088  0.38905051    -0.01240
C869        C  0.10086962  0.31513702  0.66661337    -0.02360
C870        C  0.11026710  0.34273498  0.66258497     0.07320
C871        C  0.10150044  0.35753909  0.63819886    -0.02480
C872        C  0.08138586  0.34561967  0.62032033    -0.02480
C873        C  0.07543276  0.31675990  0.62291632     0.07450
C874        C  0.08898282  0.30142007  0.64417332    -0.02680
Br875      Br  0.10886675  0.26808692  0.63412129    -0.01220
Br876      Br  0.10558075  0.29432518  0.70117375    -0.01300
Br877      Br  0.06360701  0.36870669  0.59212194    -0.01260
Br878      Br  0.11996384  0.39134479  0.62607889    -0.01240
C879        C  0.10154549  0.31912466  0.42646529    -0.02360
C880        C  0.11739383  0.34260053  0.43450290     0.07320
C881        C  0.11203998  0.35464090  0.46103476    -0.02480
C882        C  0.09164132  0.34299488  0.47960668    -0.02480
C883        C  0.07710461  0.31800457  0.47244780     0.07450
C884        C  0.08116416  0.30732076  0.44480330    -0.02680
Br885      Br  0.05773588  0.27791871  0.42982732    -0.01220
Br886      Br  0.10684358  0.30310733  0.38975351    -0.01300
Br887      Br  0.08289112  0.36341653  0.51364583    -0.01260
Br888      Br  0.13366020  0.38681523  0.47245000    -0.01240
C889        C  0.10606955  0.19465565  0.59164370    -0.02360
C890        C  0.08329697  0.20865924  0.60451836     0.07320
C891        C  0.08152431  0.20872437  0.63424787    -0.02480
C892        C  0.10455440  0.19895702  0.65024822    -0.02480
C893        C  0.13004558  0.19092516  0.63676834     0.07450
C894        C  0.13009511  0.18739440  0.60720841    -0.02680
Br895      Br  0.16298707  0.17403715  0.58699240    -0.01220
Br896      Br  0.10261272  0.18253600  0.55348476    -0.01300
Br897      Br  0.10106534  0.19664490  0.69054495    -0.01260
Br898      Br  0.05008251  0.22607810  0.65365386    -0.01240
C899        C  0.14831601  0.21670764  0.47218849    -0.02360
C900        C  0.13848241  0.20421300  0.44745392     0.07320
C901        C  0.10938943  0.20018961  0.44389673    -0.02480
C902        C  0.09002257  0.20854290  0.46501302    -0.02480
C903        C  0.09983915  0.21999506  0.49051912     0.07450
C904        C  0.12927798  0.22410707  0.49379495    -0.02680
Br905      Br  0.14445168  0.23926209  0.52813338    -0.01220
Br906      Br  0.18830092  0.22261583  0.47731275    -0.01300
Br907      Br  0.05029436  0.20602961  0.45719213    -0.01260
Br908      Br  0.09634883  0.18346098  0.40963083    -0.01240
C909        C  0.22201455  0.07726617  0.44473231    -0.02360
C910        C  0.21585537  0.07477224  0.47391923     0.07320
C911        C  0.19600525  0.09352517  0.48596740    -0.02480
C912        C  0.18982655  0.11877691  0.47215991    -0.02480
C913        C  0.19718874  0.12242415  0.44331207     0.07450
C914        C  0.21127845  0.10025261  0.42922399    -0.02680
Br915      Br  0.21568450  0.10093707  0.38882415    -0.01220
Br916      Br  0.24470298  0.04933642  0.42544719    -0.01300
Br917      Br  0.17603133  0.14921526  0.49549852    -0.01260
Br918      Br  0.17672525  0.08555834  0.52127377    -0.01240
C919        C  0.21098242  0.07415378  0.64384177    -0.02360
C920        C  0.22127781  0.07914526  0.61630345     0.07320
C921        C  0.22383265  0.10707300  0.60646431    -0.02480
C922        C  0.21922831  0.12940369  0.62488099    -0.02480
C923        C  0.20641188  0.12465201  0.65126336     0.07450
C924        C  0.20205492  0.09692984  0.66073756    -0.02680
Br925      Br  0.18390193  0.09048292  0.69658744    -0.01220
Br926      Br  0.20738263  0.03616215  0.65742911    -0.01300
Br927      Br  0.23058046  0.16682360  0.61386461    -0.01260
Br928      Br  0.23135169  0.11593367  0.56744774    -0.01240
C929        C  0.31465530  0.13433452  0.45091289    -0.02360
C930        C  0.34446620  0.13638070  0.44891876     0.07320
C931        C  0.36060522  0.12434776  0.47090463    -0.02480
C932        C  0.34829304  0.10426543  0.48903944    -0.02480
C933        C  0.31858330  0.10221009  0.49089453     0.07450
C934        C  0.30216141  0.12066490  0.47412067    -0.02680
Br935      Br  0.26268898  0.12804881  0.48176315    -0.01220
Br936      Br  0.28994360  0.14525816  0.42064550    -0.01300
Br937      Br  0.37256147  0.07957828  0.51031333    -0.01260
Br938      Br  0.39937397  0.13538120  0.47649856    -0.01240
C939        C  0.25350923  0.22012366  0.72995131    -0.02360
C940        C  0.24246666  0.24082510  0.74834144     0.07320
C941        C  0.21214786  0.24358152  0.74710902    -0.02480
C942        C  0.19642868  0.22962206  0.72592324    -0.02480
C943        C  0.21062869  0.21572736  0.70348319     0.07450
C944        C  0.24053350  0.21633978  0.70399950    -0.02680
Br945      Br  0.26403152  0.20369506  0.67333821    -0.01220
Br946      Br  0.25261550  0.18290526  0.74548759    -0.01300
Br947      Br  0.15573565  0.22790828  0.72942874    -0.01260
Br948      Br  0.19010336  0.26152821  0.77580367    -0.01240
C949        C  0.21825336  0.32576393  0.76917973    -0.02360
C950        C  0.23674932  0.30530415  0.75770354     0.07320
C951        C  0.23671197  0.30430267  0.72737480    -0.02480
C952        C  0.21598934  0.31955121  0.71191778    -0.02480
C953        C  0.19321163  0.33246464  0.72629230     0.07450
C954        C  0.19267496  0.33037679  0.75575318    -0.02680
Br955      Br  0.15987404  0.33936471  0.77809295    -0.01220
Br956      Br  0.23395121  0.36277103  0.76987041    -0.01300
Br957      Br  0.21887146  0.32319984  0.67149569    -0.01260
Br958      Br  0.26504848  0.28578534  0.70515401    -0.01240
C959        C  0.32153755  0.23505914  0.74020433    -0.02360
C960        C  0.30581425  0.22456306  0.76364819     0.07320
C961        C  0.31057386  0.19602230  0.77160663    -0.02480
C962        C  0.32864625  0.17851703  0.75539971    -0.02480
C963        C  0.34225451  0.18881575  0.73094858     0.07450
C964        C  0.33862145  0.21716822  0.72350125    -0.02680
Br965      Br  0.35854899  0.23190338  0.69098365    -0.01220
Br966      Br  0.32483927  0.27480932  0.73380326    -0.01300
Br967      Br  0.33336297  0.13958100  0.76596508    -0.01260
Br968      Br  0.29059169  0.17855952  0.80252939    -0.01240
C969        C  0.33660780  0.11280633  0.59953170    -0.02360
C970        C  0.31942678  0.09014675  0.60836781     0.07320
C971        C  0.31337096  0.08723848  0.63759342    -0.02480
C972        C  0.32437576  0.10618347  0.65696848    -0.02480
C973        C  0.34442945  0.12607781  0.64829748     0.07450
C974        C  0.35042515  0.12959537  0.61947495    -0.02680
Br975      Br  0.37685956  0.15798284  0.60755895    -0.01220
Br976      Br  0.34004291  0.12205736  0.56043185    -0.01300
Br977      Br  0.31118349  0.10536595  0.69568002    -0.01260
Br978      Br  0.29029359  0.05793811  0.65311126    -0.01240
C979        C  0.91046018  0.22104450  0.64640480    -0.02360
C980        C  0.91907559  0.19682856  0.66126751     0.07320
C981        C  0.94641103  0.18570803  0.65683193    -0.02480
C982        C  0.96510822  0.19886706  0.63774348    -0.02480
C983        C  0.95705097  0.22394394  0.62407196     0.07450
C984        C  0.92935628  0.23447497  0.62799863    -0.02680
Br985      Br  0.91590622  0.26669749  0.60791397    -0.01220
Br986      Br  0.87200078  0.23526700  0.64941625    -0.01300
Br987      Br  0.00015947  0.18055599  0.62760136    -0.01260
Br988      Br  0.95802442  0.15233016  0.67679307    -0.01240
C989        C  0.93639262  0.18877065  0.46228727    -0.02360
C990        C  0.90879919  0.19999429  0.46255765     0.07320
C991        C  0.89991849  0.21698638  0.48508429    -0.02480
C992        C  0.91925698  0.22506620  0.50565151    -0.02480
C993        C  0.94791269  0.21598790  0.50408052     0.07450
C994        C  0.95545562  0.19564615  0.48363904    -0.02680
Br995      Br  0.99020731  0.17449664  0.48592269    -0.01220
Br996      Br  0.94797961  0.16385693  0.43236243    -0.01300
Br997      Br  0.90502922  0.24655637  0.53712859    -0.01260
Br998      Br  0.86065108  0.22789065  0.48873723    -0.01240
C999        C  0.83276176  0.10462199  0.65595951    -0.02360
C1000       C  0.84643319  0.12909859  0.64656525     0.07320
C1001       C  0.84777332  0.13529697  0.61743872    -0.02480
C1002       C  0.83615215  0.11670989  0.59813404    -0.02480
C1003       C  0.81929074  0.09426786  0.60765790     0.07450
C1004       C  0.81798178  0.08805455  0.63684588    -0.02680
Br1005     Br  0.79467208  0.05858119  0.65207043    -0.01220
Br1006     Br  0.83447484  0.09361554  0.69509795    -0.01300
Br1007     Br  0.84517805  0.12109652  0.55869360    -0.01260
Br1008     Br  0.86287085  0.17038692  0.60333032    -0.01240
C1009       C  0.80758699  0.11543675  0.48543384    -0.02360
C1010       C  0.81848863  0.08766332  0.48586598     0.07320
C1011       C  0.84093228  0.08077168  0.46732816    -0.02480
C1012       C  0.85175138  0.10118727  0.44837012    -0.02480
C1013       C  0.83898919  0.12804364  0.44665138     0.07450
C1014       C  0.81598613  0.13441616  0.46447839    -0.02680
Br1015     Br  0.79667644  0.17020180  0.46183973    -0.01220
Br1016     Br  0.78573489  0.13101726  0.51593418    -0.01300
Br1017     Br  0.88405826  0.09266440  0.42478912    -0.01260
Br1018     Br  0.85862187  0.04442356  0.47015686    -0.01240
C1019       C  0.70903030  0.13682986  0.64082224    -0.02360
C1020       C  0.69169439  0.12520226  0.66234420     0.07320
C1021       C  0.68408991  0.09637942  0.66009314    -0.02480
C1022       C  0.69495197  0.07979595  0.63797085    -0.02480
C1023       C  0.71566488  0.09040426  0.61944383     0.07450
C1024       C  0.72190641  0.11938143  0.62033162    -0.02680
Br1025     Br  0.74913567  0.13564914  0.59486652    -0.01220
Br1026     Br  0.71433561  0.17698511  0.63836441    -0.01300
Br1027     Br  0.68072301  0.04236902  0.63217370    -0.01260
Br1028     Br  0.66079660  0.07739381  0.68766983    -0.01240
C1029       C  0.79974104  0.23668937  0.72975784    -0.02360
C1030       C  0.80814858  0.24023062  0.75798589     0.07320
C1031       C  0.83039572  0.22327108  0.76841339    -0.02480
C1032       C  0.84391718  0.20335110  0.75113615    -0.02480
C1033       C  0.83563942  0.20011269  0.72311173     0.07450
C1034       C  0.81292221  0.21626071  0.71267274    -0.02680
Br1035     Br  0.80120561  0.21243834  0.67410683    -0.01220
Br1036     Br  0.77588310  0.26398084  0.71174589    -0.01300
Br1037     Br  0.87334999  0.17950050  0.76615957    -0.01260
Br1038     Br  0.84193136  0.22590881  0.80688412    -0.01240
C1039       C  0.75250353  0.19940960  0.77362355    -0.02360
C1040       C  0.74827851  0.22903350  0.77320213     0.07320
C1041       C  0.72641035  0.23988881  0.75595980    -0.02480
C1042       C  0.70898639  0.22185942  0.74052885    -0.02480
C1043       C  0.71297837  0.19264228  0.74172238     0.07450
C1044       C  0.73480551  0.18149574  0.75820526    -0.02680
Br1045     Br  0.73979698  0.14124968  0.76014927    -0.01220
Br1046     Br  0.78250081  0.18201001  0.79410180    -0.01300
Br1047     Br  0.67981196  0.23719710  0.71676993    -0.01260
Br1048     Br  0.72113385  0.27971779  0.75093436    -0.01240
C1049       C  0.94331940  0.33090802  0.66232236    -0.02360
C1050       C  0.91947683  0.34734690  0.65587943     0.07320
C1051       C  0.91252180  0.35213279  0.62768202    -0.02480
C1052       C  0.92878071  0.33968224  0.60589644    -0.02480
C1053       C  0.95374792  0.32402997  0.61210497     0.07450
C1054       C  0.96150780  0.32121282  0.64081075    -0.02680
Br1055     Br  0.99696193  0.30478765  0.65240021    -0.01220
Br1056     Br  0.95053785  0.32058960  0.70100829    -0.01300
Br1057     Br  0.91599054  0.34470746  0.56791523    -0.01260
Br1058     Br  0.87980645  0.37494400  0.61927887    -0.01240
C1059       C  0.85601321  0.30948787  0.78355284    -0.02360
C1060       C  0.83068191  0.29829059  0.77216696     0.07320
C1061       C  0.82722315  0.30412748  0.74330681    -0.02480
C1062       C  0.83523423  0.33059453  0.73328339    -0.02480
C1063       C  0.86049492  0.34228212  0.74336851     0.07450
C1064       C  0.87130250  0.33084455  0.76867769    -0.02680
Br1065     Br  0.90777918  0.34260945  0.78175270    -0.01220
Br1066     Br  0.87494305  0.29063002  0.81353699    -0.01300
Br1067     Br  0.81720516  0.34461585  0.70003866    -0.01260
Br1068     Br  0.84832021  0.27887877  0.71930022    -0.01240
C1069       C  0.73543286  0.31882769  0.89350014    -0.02360
C1070       C  0.71722523  0.33905543  0.88202337     0.07320
C1071       C  0.71677422  0.34306894  0.85287171    -0.02480
C1072       C  0.73429368  0.32659154  0.83515216    -0.02480
C1073       C  0.75102690  0.30426356  0.84620791     0.07450
C1074       C  0.75067311  0.30034837  0.87588692    -0.02680
Br1075     Br  0.76792823  0.26907298  0.89424655    -0.01220
Br1076     Br  0.73986953  0.31693906  0.93385896    -0.01300
Br1077     Br  0.73290499  0.33387124  0.79544495    -0.01260
Br1078     Br  0.69191815  0.37134108  0.83748282    -0.01240
C1079       C  0.59618374  0.15016983  0.74190380    -0.02360
C1080       C  0.62364991  0.13903059  0.73891675     0.07320
C1081       C  0.62918517  0.11170668  0.74820001    -0.02480
C1082       C  0.60682057  0.09343126  0.75347000    -0.02480
C1083       C  0.57878885  0.10372386  0.75633485     0.07450
C1084       C  0.57411134  0.13301936  0.75268666    -0.02680
Br1085     Br  0.53833983  0.15013373  0.76236079    -0.01220
Br1086     Br  0.58948345  0.18886148  0.73222198    -0.01300
Br1087     Br  0.61608614  0.05443423  0.75572452    -0.01260
Br1088     Br  0.66772099  0.09994666  0.75543047    -0.01240
C1089       C  0.42989022  0.07260270  0.74277918    -0.02360
C1090       C  0.45896996  0.07906878  0.74223459     0.07320
C1091       C  0.46797917  0.10248355  0.72634525    -0.02480
C1092       C  0.44799854  0.12142685  0.71482864    -0.02480
C1093       C  0.41881266  0.11623432  0.71801300     0.07450
C1094       C  0.41000222  0.09110076  0.73101531    -0.02680
Br1095     Br  0.37044547  0.08163582  0.73277555    -0.01220
Br1096     Br  0.41661196  0.03780490  0.75808259    -0.01300
Br1097     Br  0.46043378  0.15420929  0.69445335    -0.01260
Br1098     Br  0.50728788  0.10569299  0.71658957    -0.01240
C1099       C  0.68495278  0.22999566  0.84280257    -0.02360
C1100       C  0.69429433  0.20899418  0.86136955     0.07320
C1101       C  0.72351676  0.20507470  0.86487124    -0.02480
C1102       C  0.74316480  0.22185332  0.84970991    -0.02480
C1103       C  0.73388388  0.24433032  0.83217960     0.07450
C1104       C  0.70426064  0.24865283  0.82992160    -0.02680
Br1105     Br  0.68836566  0.28088692  0.81187128    -0.01220
Br1106     Br  0.64550651  0.23220836  0.83346049    -0.01300
Br1107     Br  0.78290252  0.21433962  0.85465664    -0.01260
Br1108     Br  0.73644500  0.17634150  0.89044947    -0.01240
C1109       C  0.60074643  0.13739733  0.85326095    -0.02360
C1110       C  0.62462998  0.12968682  0.86899033     0.07320
C1111       C  0.62719964  0.10177800  0.87880204    -0.02480
C1112       C  0.60726399  0.08145190  0.87090174    -0.02480
C1113       C  0.58554131  0.08870490  0.85234454     0.07450
C1114       C  0.58055141  0.11725902  0.84643391    -0.02680
Br1115     Br  0.54346457  0.12977211  0.83555186    -0.01220
Br1116     Br  0.59435663  0.17602060  0.84267552    -0.01300
Br1117     Br  0.60436564  0.04678782  0.89142788    -0.01260
Br1118     Br  0.65715977  0.09187927  0.90408148    -0.01240
C1119       C  0.32540874  0.20662706  0.86439393    -0.02360
C1120       C  0.35411659  0.20278007  0.85744664     0.07320
C1121       C  0.36542263  0.21620640  0.83353814    -0.02480
C1122       C  0.34852408  0.23429161  0.81711564    -0.02480
C1123       C  0.31921127  0.23819579  0.82352268     0.07450
C1124       C  0.30786147  0.22331428  0.84710612    -0.02680
Br1125     Br  0.26744704  0.22057309  0.85279429    -0.01220
Br1126     Br  0.30996417  0.18777034  0.89705715    -0.01300
Br1127     Br  0.36725835  0.25228545  0.78611958    -0.01260
Br1128     Br  0.40465514  0.20938931  0.82326899    -0.01240
C1129       C  0.43519144  0.10095951  0.89078280    -0.02360
C1130       C  0.41219494  0.11337630  0.87637352     0.07320
C1131       C  0.39928301  0.09573766  0.85635028    -0.02480
C1132       C  0.41479950  0.07276934  0.84485155    -0.02480
C1133       C  0.44341981  0.06829908  0.85215776     0.07450
C1134       C  0.45248114  0.08089986  0.87738159    -0.02680
Br1135     Br  0.48705551  0.06998890  0.89601617    -0.01220
Br1136     Br  0.43677572  0.10251861  0.93130826    -0.01300
Br1137     Br  0.39507658  0.04431863  0.82469857    -0.01260
Br1138     Br  0.35893054  0.09717630  0.85052704    -0.01240
C1139       C  0.30833404  0.22749633  0.24371798    -0.02360
C1140       C  0.32065145  0.24717912  0.26232205     0.07320
C1141       C  0.35050341  0.24792989  0.26344970    -0.02480
C1142       C  0.36689245  0.22710664  0.25044403    -0.02480
C1143       C  0.35459253  0.20837475  0.23168160     0.07450
C1144       C  0.32536626  0.20876921  0.22798314    -0.02680
Br1145     Br  0.30896154  0.18251934  0.20220742    -0.01220
Br1146     Br  0.26831031  0.22486844  0.23902174    -0.01300
Br1147     Br  0.40634725  0.22372235  0.25968910    -0.01260
Br1148     Br  0.37093323  0.27909382  0.27744087    -0.01240
C1149       C  0.59737722  0.20071263  0.98496270    -0.02360
C1150       C  0.57735040  0.22115352  0.97615651     0.07320
C1151       C  0.57784288  0.22971725  0.94752541    -0.02480
C1152       C  0.60023004  0.22181497  0.92961962    -0.02480
C1153       C  0.62088589  0.20260232  0.93869403     0.07450
C1154       C  0.61894000  0.19150872  0.96619653    -0.02680
Br1155     Br  0.64626628  0.16378588  0.97805165    -0.01220
Br1156     Br  0.59493893  0.18363322  0.02174574    -0.01300
Br1157     Br  0.60172663  0.23700601  0.89203308    -0.01260
Br1158     Br  0.54660752  0.25017512  0.93106344    -0.01240
C1159       C  0.46095233  0.24010836  0.94079783    -0.02360
C1160       C  0.46853475  0.22668913  0.96662277     0.07320
C1161       C  0.45602197  0.20034498  0.97306781    -0.02480
C1162       C  0.43428127  0.18983205  0.95636291    -0.02480
C1163       C  0.42838430  0.20210443  0.93014281     0.07450
C1164       C  0.44222096  0.22704303  0.92220276    -0.02680
Br1165     Br  0.43620029  0.24321580  0.88536140    -0.01220
Br1166     Br  0.47512728  0.27645235  0.92928895    -0.01300
Br1167     Br  0.41075337  0.15986500  0.97066131    -0.01260
Br1168     Br  0.46956314  0.17629072  0.00285738    -0.01240
C1169       C  0.41029657  0.31685360  0.13417906    -0.02360
C1170       C  0.41683099  0.34251235  0.14677137     0.07320
C1171       C  0.44268372  0.35569841  0.14000184    -0.02480
C1172       C  0.46138927  0.34412959  0.11964179    -0.02480
C1173       C  0.45504233  0.31826189  0.10658260     0.07450
C1174       C  0.42920171  0.30443189  0.11480300    -0.02680
Br1175     Br  0.41721063  0.26833530  0.10040562    -0.01220
Br1176     Br  0.37371107  0.29964170  0.14144683    -0.01300
Br1177     Br  0.49428481  0.36554952  0.10866184    -0.01260
Br1178     Br  0.45186530  0.39040127  0.15839852    -0.01240
C1179       C  0.45155308  0.20033276  0.11204154    -0.02360
C1180       C  0.46971578  0.22292347  0.11866430     0.07320
C1181       C  0.46660294  0.23598930  0.14567088    -0.02480
C1182       C  0.44696528  0.22565805  0.16527069    -0.02480
C1183       C  0.42881419  0.20393807  0.15805608     0.07450
C1184       C  0.43069166  0.19160177  0.13144628    -0.02680
Br1185     Br  0.40422595  0.16253499  0.12191384    -0.01220
Br1186     Br  0.45424191  0.18047932  0.07695332    -0.01300
Br1187     Br  0.44588178  0.24060553  0.20285918    -0.01260
Br1188     Br  0.48718018  0.26907420  0.15769712    -0.01240
C1189       C  0.62530970  0.21254366  0.10616814    -0.02360
C1190       C  0.59639433  0.22100590  0.10958286     0.07320
C1191       C  0.58364858  0.21725616  0.13663588    -0.02480
C1192       C  0.59981506  0.20855574  0.15970627    -0.02480
C1193       C  0.62801041  0.19977932  0.15604233     0.07450
C1194       C  0.64059246  0.20139457  0.12916439    -0.02680
Br1195     Br  0.67890644  0.18794462  0.12409045    -0.01220
Br1196     Br  0.64489441  0.21482725  0.07033896    -0.01300
Br1197     Br  0.58350377  0.21022931  0.19710870    -0.01260
Br1198     Br  0.54370948  0.22193740  0.14369064    -0.01240
C1199       C  0.60797265  0.35328748  0.95406430    -0.02360
C1200       C  0.63255954  0.33845808  0.94579339     0.07320
C1201       C  0.63866140  0.31245314  0.95868124    -0.02480
C1202       C  0.62183511  0.30256532  0.98121808    -0.02480
C1203       C  0.59788089  0.31843251  0.99094800     0.07450
C1204       C  0.59151627  0.34420627  0.97722490    -0.02680
Br1205     Br  0.56244552  0.36939521  0.99126470    -0.01220
Br1206     Br  0.59741764  0.38686754  0.93363912    -0.01300
Br1207     Br  0.63421600  0.26769426  0.99875966    -0.01260
Br1208     Br  0.67094526  0.29025107  0.94652147    -0.01240
C1209       C  0.61140094  0.08017186  0.23709353    -0.02360
C1210       C  0.58729246  0.08829207  0.25301783     0.07320
C1211       C  0.58189642  0.11730494  0.25700272    -0.02480
C1212       C  0.60197064  0.13729168  0.24845085    -0.02480
C1213       C  0.62545714  0.12933794  0.23186294     0.07450
C1214       C  0.62986386  0.10072485  0.22572566    -0.02680
Br1215     Br  0.66150880  0.08989424  0.20221781    -0.01220
Br1216     Br  0.61778090  0.04113071  0.22892321    -0.01300
Br1217     Br  0.59775504  0.17568148  0.26062489    -0.01260
Br1218     Br  0.54666690  0.13096720  0.27281400    -0.01240
C1219       C  0.45988296  0.09394439  0.22605305    -0.02360
C1220       C  0.46179338  0.09401963  0.25557565     0.07320
C1221       C  0.44077978  0.10815055  0.27115063    -0.02480
C1222       C  0.42422805  0.12865262  0.25851382    -0.02480
C1223       C  0.42249949  0.12949647  0.22892195     0.07450
C1224       C  0.43840880  0.10965472  0.21306229    -0.02680
Br1225     Br  0.43018200  0.10293578  0.17402418    -0.01220
Br1226     Br  0.48621322  0.07256277  0.20320508    -0.01300
Br1227     Br  0.40677722  0.15556026  0.28354475    -0.01260
Br1228     Br  0.42656085  0.09324465  0.30581420    -0.01240
C1229       C  0.44325063  0.06804844  0.37853928    -0.02360
C1230       C  0.46530011  0.07952075  0.36248188     0.07320
C1231       C  0.46572506  0.10902281  0.35835396    -0.02480
C1232       C  0.44271151  0.12576997  0.36743111    -0.02480
C1233       C  0.41770625  0.11296430  0.37755024     0.07450
C1234       C  0.41832803  0.08365442  0.38343826    -0.02680
Br1235     Br  0.38485429  0.06344332  0.39509723    -0.01220
Br1236     Br  0.44939934  0.03240213  0.39668027    -0.01300
Br1237     Br  0.44576169  0.16621739  0.36579471    -0.01260
Br1238     Br  0.49573238  0.12713565  0.33784187    -0.01240
C1239       C  0.70412425  0.12210138  0.49825142    -0.02360
C1240       C  0.71723489  0.09687846  0.48945488     0.07320
C1241       C  0.71913113  0.09111298  0.46042632    -0.02480
C1242       C  0.70665493  0.10900269  0.44077954    -0.02480
C1243       C  0.69437960  0.13447415  0.44937392     0.07450
C1244       C  0.69315519  0.14114366  0.47815312    -0.02680
Br1245     Br  0.67568542  0.17582218  0.48980325    -0.01220
Br1246     Br  0.70008739  0.12993221  0.53766143    -0.01300
Br1247     Br  0.70544762  0.09762332  0.40190076    -0.01260
Br1248     Br  0.74084542  0.06030166  0.44607006    -0.01240
C1249       C  0.57684707  0.11644680  0.37686051    -0.02360
C1250       C  0.58495643  0.09871021  0.35455163     0.07320
C1251       C  0.61316254  0.09940687  0.34442495    -0.02480
C1252       C  0.63225606  0.11916335  0.35460461    -0.02480
C1253       C  0.62407300  0.13725936  0.37663280     0.07450
C1254       C  0.59634110  0.13565513  0.38789363    -0.02680
Br1255     Br  0.58504117  0.16007166  0.41823064    -0.01220
Br1256     Br  0.54013474  0.11229389  0.39427107    -0.01300
Br1257     Br  0.67009855  0.12028699  0.33853502    -0.01260
Br1258     Br  0.62731163  0.07205240  0.31824530    -0.01240
C1259       C  0.70107895  0.25108765  0.26704840    -0.02360
C1260       C  0.73022449  0.24393966  0.27008919     0.07320
C1261       C  0.74012426  0.21946017  0.25591052    -0.02480
C1262       C  0.72166546  0.20242006  0.24042566    -0.02480
C1263       C  0.69300794  0.20967004  0.23796875     0.07450
C1264       C  0.68281067  0.23400098  0.25131509    -0.02680
Br1265     Br  0.64311500  0.24356050  0.24822464    -0.01220
Br1266     Br  0.68456554  0.28419681  0.28285120    -0.01300
Br1267     Br  0.73578136  0.16943122  0.22130893    -0.01260
Br1268     Br  0.77968817  0.21030421  0.25415681    -0.01240
C1269       C  0.71923888  0.24414677  0.34568902    -0.02360
C1270       C  0.74292210  0.23212166  0.33128833     0.07320
C1271       C  0.74860494  0.20318468  0.33608767    -0.02480
C1272       C  0.73139334  0.18724267  0.35459118    -0.02480
C1273       C  0.70763462  0.19941473  0.36799882     0.07450
C1274       C  0.70150007  0.22781875  0.36324343    -0.02680
Br1275     Br  0.66930525  0.24467558  0.38230357    -0.01220
Br1276     Br  0.71249324  0.28379621  0.34542135    -0.01300
Br1277     Br  0.74037759  0.14825452  0.36126936    -0.01260
Br1278     Br  0.77937582  0.18386367  0.31806172    -0.01240
C1279       C  0.82738823  0.22822032  0.33790691    -0.02360
C1280       C  0.80410767  0.24543328  0.34647743     0.07320
C1281       C  0.79794892  0.24681513  0.37576481    -0.02480
C1282       C  0.81492448  0.23233582  0.39539276    -0.02480
C1283       C  0.83695241  0.21445018  0.38636270     0.07450
C1284       C  0.84329137  0.21270075  0.35760340    -0.02680
Br1285     Br  0.87403924  0.18859788  0.34537931    -0.01220
Br1286     Br  0.83631041  0.22250783  0.29895872    -0.01300
Br1287     Br  0.80833868  0.23757176  0.43505712    -0.01260
Br1288     Br  0.76572880  0.26650007  0.39055899    -0.01240
C1289       C  0.73401770  0.31361012  0.20349280    -0.02360
C1290       C  0.71810896  0.33687443  0.21275331     0.07320
C1291       C  0.71809955  0.34382714  0.24130635    -0.02480
C1292       C  0.73327758  0.32725508  0.26065084    -0.02480
C1293       C  0.74878360  0.30302550  0.25196786     0.07450
C1294       C  0.74881257  0.29651138  0.22284269    -0.02680
Br1295     Br  0.76735448  0.26391080  0.20814762    -0.01220
Br1296     Br  0.73565829  0.30554959  0.16377614    -0.01300
Br1297     Br  0.72881224  0.33658530  0.29954072    -0.01260
Br1298     Br  0.69532930  0.37519334  0.25422884    -0.01240
C1299       C  0.61824157  0.31385743  0.10873001    -0.02360
C1300       C  0.58971509  0.31460734  0.11883271     0.07320
C1301       C  0.58384768  0.32762112  0.14513579    -0.02480
C1302       C  0.60600079  0.33876243  0.16102131    -0.02480
C1303       C  0.63398039  0.33721531  0.15096034     0.07450
C1304       C  0.64005698  0.32497125  0.12487896    -0.02680
Br1305     Br  0.67876434  0.32431209  0.11098907    -0.01220
Br1306     Br  0.62922535  0.29802791  0.07295808    -0.01300
Br1307     Br  0.59829127  0.35697600  0.19646309    -0.01260
Br1308     Br  0.54564972  0.33237842  0.15940734    -0.01240
C1309       C  0.59100420  0.92411285  0.21847178    -0.02360
C1310       C  0.62033516  0.91908138  0.22303239     0.07320
C1311       C  0.63549940  0.93910843  0.23845423    -0.02480
C1312       C  0.62087860  0.96020803  0.25359267    -0.02480
C1313       C  0.59107309  0.96320785  0.25106193     0.07450
C1314       C  0.57771335  0.94791065  0.22998246    -0.02680
Br1315     Br  0.54308182  0.96198363  0.21381517    -0.01220
Br1316     Br  0.56676649  0.89788416  0.19970192    -0.01300
Br1317     Br  0.64284364  0.98501996  0.27641215    -0.01260
Br1318     Br  0.67644351  0.93869382  0.23782512    -0.01240
C1319       C  0.45682289  0.90963067  0.22642629    -0.02360
C1320       C  0.42711463  0.91371611  0.22668349     0.07320
C1321       C  0.41599419  0.93818855  0.23925240    -0.02480
C1322       C  0.43441843  0.95755125  0.25164456    -0.02480
C1323       C  0.46340886  0.95059323  0.25470121     0.07450
C1324       C  0.47375655  0.92528117  0.24399929    -0.02680
Br1325     Br  0.51058390  0.91079406  0.25377790    -0.01220
Br1326     Br  0.47688188  0.89008846  0.19731006    -0.01300
Br1327     Br  0.41927057  0.99233278  0.26614302    -0.01260
Br1328     Br  0.37598402  0.94615530  0.23757766    -0.01240
C1329       C  0.59250016  0.82984357  0.16842448    -0.02360
C1330       C  0.61693061  0.84271396  0.15733367     0.07320
C1331       C  0.62121508  0.84462528  0.12824519    -0.02480
C1332       C  0.60085601  0.83385122  0.10999329    -0.02480
C1333       C  0.57502087  0.82281051  0.12094092     0.07450
C1334       C  0.57133029  0.82056652  0.15047815    -0.02680
Br1335     Br  0.53749340  0.80535167  0.16759865    -0.01220
Br1336     Br  0.58785933  0.82506373  0.20865156    -0.01300
Br1337     Br  0.61065000  0.83185267  0.07053575    -0.01260
Br1338     Br  0.65551133  0.86141532  0.11378077    -0.01240
C1339       C  0.41245318  0.82182257  0.11182512    -0.02360
C1340       C  0.44273396  0.82196163  0.11171805     0.07320
C1341       C  0.45642471  0.83130985  0.13583200    -0.02480
C1342       C  0.44114751  0.83417107  0.16070151    -0.02480
C1343       C  0.41202126  0.83894892  0.15978583     0.07450
C1344       C  0.39735534  0.83275254  0.13520919    -0.02680
Br1345     Br  0.35691906  0.83795393  0.13437009    -0.01220
Br1346     Br  0.39068916  0.80695576  0.08136372    -0.01300
Br1347     Br  0.45866903  0.82483213  0.19579949    -0.01260
Br1348     Br  0.49314602  0.84818677  0.13361028    -0.01240
C1349       C  0.62756014  0.69524797  0.10772186    -0.02360
C1350       C  0.62711930  0.69787592  0.13748089     0.07320
C1351       C  0.60280482  0.70939597  0.15057277    -0.02480
C1352       C  0.58088446  0.72074871  0.13410995    -0.02480
C1353       C  0.58259824  0.72013087  0.10447435     0.07450
C1354       C  0.60463647  0.70490892  0.09178957    -0.02680
Br1355     Br  0.60127331  0.69380058  0.05332193    -0.01220
Br1356     Br  0.65985112  0.68049769  0.08736811    -0.01300
Br1357     Br  0.54784536  0.73524219  0.15256486    -0.01260
Br1358     Br  0.59882643  0.70873024  0.19104729    -0.01240
C1359       C  0.71252906  0.83160766  0.22699431    -0.02360
C1360       C  0.68405957  0.83390402  0.23542121     0.07320
C1361       C  0.67438954  0.81883658  0.25899562    -0.02480
C1362       C  0.69294000  0.80099868  0.27391441    -0.02480
C1363       C  0.72204895  0.79848979  0.26583135     0.07450
C1364       C  0.73146008  0.81468508  0.24235411    -0.02680
Br1365     Br  0.77105415  0.81781336  0.23319403    -0.01220
Br1366     Br  0.72584654  0.85305741  0.19490144    -0.01300
Br1367     Br  0.67644982  0.78107805  0.30491104    -0.01260
Br1368     Br  0.63511726  0.82255471  0.27052025    -0.01240
C1369       C  0.71542148  0.72477591  0.25646731    -0.02360
C1370       C  0.73953429  0.74055002  0.24766979     0.07320
C1371       C  0.74597697  0.74085669  0.21827404    -0.02480
C1372       C  0.72843745  0.72721522  0.19887047    -0.02480
C1373       C  0.70551943  0.71090953  0.20807139     0.07450
C1374       C  0.69887044  0.71000881  0.23691025    -0.02680
Br1375     Br  0.66685894  0.68810927  0.24946482    -0.01220
Br1376     Br  0.70638040  0.71990307  0.29572994    -0.01300
Br1377     Br  0.73510321  0.73168377  0.15900236    -0.01260
Br1378     Br  0.77921425  0.75749623  0.20251221    -0.01240
C1379       C  0.84542458  0.74877800  0.32421319    -0.02360
C1380       C  0.81632182  0.74125763  0.32268361     0.07320
C1381       C  0.80719461  0.71807440  0.33941766    -0.02480
C1382       C  0.82609270  0.70348359  0.35710589    -0.02480
C1383       C  0.85445358  0.71168246  0.35873218     0.07450
C1384       C  0.86419903  0.73373248  0.34166046    -0.02680
Br1385     Br  0.90391144  0.74291724  0.34200868    -0.01220
Br1386     Br  0.86138803  0.77983631  0.30422070    -0.01300
Br1387     Br  0.81303596  0.67253485  0.38014690    -0.01260
Br1388     Br  0.76792388  0.70812349  0.34196393    -0.01240
C1389       C  0.70321366  0.90271525  0.47364412    -0.02360
C1390       C  0.70442209  0.91017962  0.44504543     0.07320
C1391       C  0.71732880  0.93526455  0.43683627    -0.02480
C1392       C  0.72333090  0.95547062  0.45685955    -0.02480
C1393       C  0.72185231  0.94882154  0.48578249     0.07450
C1394       C  0.71407733  0.92122596  0.49386650    -0.02680
Br1395     Br  0.71938970  0.90812544  0.53174710    -0.01220
Br1396     Br  0.68752534  0.86709041  0.48460724    -0.01300
Br1397     Br  0.73403256  0.99170561  0.44328578    -0.01260
Br1398     Br  0.72866769  0.94107239  0.39816622    -0.01240
C1399       C  0.63361136  0.94293750  0.36493641    -0.02360
C1400       C  0.62809019  0.91680363  0.37779455     0.07320
C1401       C  0.60000283  0.90888105  0.38341000    -0.02480
C1402       C  0.57756143  0.92625590  0.37459720    -0.02480
C1403       C  0.58313695  0.95140936  0.35977624     0.07450
C1404       C  0.61127024  0.96077333  0.35733626    -0.02680
Br1405     Br  0.61973729  0.99864272  0.34555038    -0.01220
Br1406     Br  0.67171707  0.95424016  0.35647828    -0.01300
Br1407     Br  0.53986612  0.91811351  0.38736824    -0.01260
Br1408     Br  0.59247662  0.87428293  0.40328520    -0.01240
C1409       C  0.72102371  0.85958982  0.33838050    -0.02360
C1410       C  0.70689512  0.84829519  0.36195660     0.07320
C1411       C  0.70824784  0.81938385  0.36728961    -0.02480
C1412       C  0.72356697  0.80166653  0.34898329    -0.02480
C1413       C  0.73843921  0.81274379  0.32527256     0.07450
C1414       C  0.73651176  0.84206216  0.32002496    -0.02680
Br1415     Br  0.75358338  0.85968769  0.28787698    -0.01220
Br1416     Br  0.71978348  0.89961152  0.33166103    -0.01300
Br1417     Br  0.72051397  0.76183059  0.35508017    -0.01260
Br1418     Br  0.68805495  0.80405000  0.39938075    -0.01240
C1419       C  0.69449827  0.59964617  0.14698819    -0.02360
C1420       C  0.70120842  0.62823742  0.14359416     0.07320
C1421       C  0.71619514  0.63693183  0.11943587    -0.02480
C1422       C  0.72282812  0.61778884  0.09825675    -0.02480
C1423       C  0.71949952  0.58873263  0.10272813     0.07450
C1424       C  0.70421936  0.57970450  0.12703667    -0.02680
Br1425     Br  0.69569306  0.54070858  0.13340508    -0.01220
Br1426     Br  0.67256449  0.58810222  0.17941472    -0.01300
Br1427     Br  0.73305663  0.63226453  0.06178341    -0.01260
Br1428     Br  0.72770669  0.67539339  0.11470760    -0.01240
C1429       C  0.69410753  0.45576863  0.11613807    -0.02360
C1430       C  0.72026219  0.46574082  0.12540090     0.07320
C1431       C  0.72828095  0.45991304  0.15353000    -0.02480
C1432       C  0.71278297  0.44053689  0.16980914    -0.02480
C1433       C  0.69109632  0.42487095  0.15741119     0.07450
C1434       C  0.67845765  0.43703377  0.13318386    -0.02680
Br1435     Br  0.63780905  0.43885216  0.12951930    -0.01220
Br1436     Br  0.67821304  0.46996602  0.08164915    -0.01300
Br1437     Br  0.71735555  0.44008437  0.21012108    -0.01260
Br1438     Br  0.76178384  0.47581817  0.16989525    -0.01240
C1439       C  0.71457182  0.45895510  0.96725659    -0.02360
C1440       C  0.71906779  0.45163710  0.99572974     0.07320
C1441       C  0.71556964  0.42361463  0.00467214    -0.02480
C1442       C  0.70833418  0.40296282  0.98528473    -0.02480
C1443       C  0.70322662  0.41041053  0.95705541     0.07450
C1444       C  0.70611842  0.43840380  0.94811844    -0.02680
Br1445     Br  0.69831094  0.44851075  0.90964633    -0.01220
Br1446     Br  0.72222432  0.49634011  0.95340938    -0.01300
Br1447     Br  0.70646324  0.36416007  0.99731763    -0.01260
Br1448     Br  0.72060265  0.41334826  0.04364034    -0.01240
C1449       C  0.81381157  0.67620286  0.25231195    -0.02360
C1450       C  0.83595275  0.68603301  0.23511142     0.07320
C1451       C  0.84115763  0.71488181  0.23332769    -0.02480
C1452       C  0.82390964  0.73398404  0.24843832    -0.02480
C1453       C  0.80014337  0.72450746  0.26451215     0.07450
C1454       C  0.79491611  0.69515341  0.26529445    -0.02680
Br1455     Br  0.76125221  0.67906998  0.28084493    -0.01220
Br1456     Br  0.81002386  0.63628180  0.25891023    -0.01300
Br1457     Br  0.83159671  0.77338012  0.24377180    -0.01260
Br1458     Br  0.87230258  0.72790443  0.21020934    -0.01240
C1459       C  0.84631700  0.58971649  0.11324770    -0.02360
C1460       C  0.82042020  0.57587804  0.11914101     0.07320
C1461       C  0.80418335  0.58444361  0.14322141    -0.02480
C1462       C  0.81292086  0.60709984  0.15960717    -0.02480
C1463       C  0.83919523  0.61985298  0.15430367     0.07450
C1464       C  0.85531307  0.61176557  0.13052475    -0.02680
Br1465     Br  0.89033671  0.63094558  0.12215978    -0.01220
Br1466     Br  0.87166847  0.57693231  0.08377077    -0.01300
Br1467     Br  0.78881388  0.61968530  0.19028069    -0.01260
Br1468     Br  0.77092173  0.56458469  0.15696273    -0.01240
C1469       C  0.80831576  0.34418982  0.26809398    -0.02360
C1470       C  0.80867414  0.31453835  0.26636255     0.07320
C1471       C  0.82579090  0.30213867  0.24480027    -0.02480
C1472       C  0.84280776  0.31878963  0.22677884    -0.02480
C1473       C  0.84122890  0.34802187  0.22832005     0.07450
C1474       C  0.82232406  0.36053665  0.24764380    -0.02680
Br1475     Br  0.81351788  0.40008303  0.24471415    -0.01220
Br1476     Br  0.79219327  0.36390090  0.29935393    -0.01300
Br1477     Br  0.86823058  0.30189457  0.19958870    -0.01260
Br1478     Br  0.82870834  0.26225750  0.24066286    -0.01240
C1479       C  0.86072082  0.43053089  0.12912391    -0.02360
C1480       C  0.84508333  0.41514516  0.14970279     0.07320
C1481       C  0.81525591  0.41349620  0.14685754    -0.02480
C1482       C  0.80233627  0.42574653  0.12354970    -0.02480
C1483       C  0.81717970  0.44538934  0.10703732     0.07450
C1484       C  0.84655101  0.44751986  0.10945033    -0.02680
Br1485     Br  0.86729936  0.47185318  0.08415902    -0.01220
Br1486     Br  0.90108351  0.42634010  0.12526196    -0.01300
Br1487     Br  0.76492638  0.41375485  0.11343187    -0.01260
Br1488     Br  0.79017380  0.39800346  0.17531366    -0.01240
C1489       C  0.20910509  0.33071891  0.24070538    -0.02360
C1490       C  0.21507995  0.35945126  0.24080691     0.07320
C1491       C  0.23617389  0.36968224  0.25837064    -0.02480
C1492       C  0.25146292  0.35113840  0.27578257    -0.02480
C1493       C  0.24668977  0.32169189  0.27499497     0.07450
C1494       C  0.22474101  0.31201445  0.25748360    -0.02680
Br1495     Br  0.21616035  0.27293992  0.25439145    -0.01220
Br1496     Br  0.17985786  0.31695510  0.21641811    -0.01300
Br1497     Br  0.27671729  0.36801534  0.30145376    -0.01260
Br1498     Br  0.24337623  0.40962895  0.25914593    -0.01240
C1499       C  0.89891988  0.58311368  0.24081916    -0.02360
C1500       C  0.90729684  0.60899810  0.22912000     0.07320
C1501       C  0.93607091  0.61505947  0.22540692    -0.02480
C1502       C  0.95658708  0.59616077  0.23527213    -0.02480
C1503       C  0.94819896  0.57205324  0.25081875     0.07450
C1504       C  0.91934477  0.56439002  0.25115764    -0.02680
Br1505     Br  0.90772002  0.52724714  0.26288592    -0.01220
Br1506     Br  0.85935081  0.57333057  0.24263734    -0.01300
Br1507     Br  0.99548655  0.60265118  0.22464068    -0.01260
Br1508     Br  0.94716640  0.64925948  0.20635592    -0.01240
C1509       C  0.92670403  0.44529030  0.27246568    -0.02360
C1510       C  0.95067823  0.45718304  0.25895127     0.07320
C1511       C  0.95609260  0.45096166  0.23044717    -0.02480
C1512       C  0.93836819  0.43229530  0.21614724    -0.02480
C1513       C  0.91342637  0.42197784  0.22922040     0.07450
C1514       C  0.90773554  0.42885161  0.25753234    -0.02680
Br1515     Br  0.87358462  0.41696045  0.27675261    -0.01220
Br1516     Br  0.91939205  0.44986090  0.31206882    -0.01300
Br1517     Br  0.94981090  0.41919445  0.17953412    -0.01260
Br1518     Br  0.98631973  0.46950597  0.21012616    -0.01240
C1519       C  0.09391176  0.43413174  0.33447351    -0.02360
C1520       C  0.08694379  0.45944072  0.34849833     0.07320
C1521       C  0.10040703  0.46485924  0.37413153    -0.02480
C1522       C  0.12104026  0.44579761  0.38459894    -0.02480
C1523       C  0.12957287  0.42201046  0.36872387     0.07450
C1524       C  0.11719378  0.41788084  0.34245472    -0.02680
Br1525     Br  0.12996686  0.38853650  0.31744927    -0.01220
Br1526     Br  0.06705473  0.41463530  0.31208308    -0.01300
Br1527     Br  0.13805416  0.45237610  0.42045449    -0.01260
Br1528     Br  0.08786959  0.49617569  0.39647826    -0.01240
C1529       C  0.10007898  0.40951119  0.22822534    -0.02360
C1530       C  0.12788598  0.41603184  0.23574018     0.07320
C1531       C  0.13320267  0.43919411  0.25273107    -0.02480
C1532       C  0.11173536  0.45862162  0.25801097    -0.02480
C1533       C  0.08343991  0.45201954  0.25148178     0.07450
C1534       C  0.07756842  0.42672343  0.23756646    -0.02680
Br1535     Br  0.03911829  0.41638336  0.23026746    -0.01220
Br1536     Br  0.09326192  0.37719755  0.20533061    -0.01300
Br1537     Br  0.12308599  0.49468498  0.27177560    -0.01260
Br1538     Br  0.17024225  0.44448096  0.26858059    -0.01240
C1539       C  0.10292275  0.58243556  0.23832954    -0.02360
C1540       C  0.07808278  0.59516337  0.24950371     0.07320
C1541       C  0.07708080  0.62491015  0.25119857    -0.02480
C1542       C  0.10063860  0.64107151  0.24238597    -0.02480
C1543       C  0.12614522  0.62763844  0.23435347     0.07450
C1544       C  0.12752752  0.59812319  0.23465350    -0.02680
Br1545     Br  0.16353296  0.57859161  0.23158688    -0.01220
Br1546     Br  0.10372019  0.54477156  0.22364259    -0.01300
Br1547     Br  0.09759991  0.68144678  0.24064778    -0.01260
Br1548     Br  0.04287393  0.64421942  0.26241203    -0.01240
C1549       C  0.92988814  0.59145933  0.35450511    -0.02360
C1550       C  0.95926809  0.59214706  0.35909008     0.07320
C1551       C  0.96996363  0.61094619  0.37859096    -0.02480
C1552       C  0.95304793  0.63328758  0.38822531    -0.02480
C1553       C  0.92372488  0.63432808  0.38174454     0.07450
C1554       C  0.91200066  0.61190277  0.36663340    -0.02680
Br1555     Br  0.87147635  0.60843931  0.36312521    -0.01220
Br1556     Br  0.91373025  0.56217555  0.33244964    -0.01300
Br1557     Br  0.97211925  0.66312994  0.40736552    -0.01260
Br1558     Br  0.00680110  0.60413051  0.39419822    -0.01240
C1559       C  0.18800085  0.61821074  0.13885198    -0.02360
C1560       C  0.20196574  0.62531745  0.16380007     0.07320
C1561       C  0.22725102  0.61103242  0.17061370    -0.02480
C1562       C  0.23906768  0.59090466  0.15221190    -0.02480
C1563       C  0.22507073  0.58354064  0.12697741     0.07450
C1564       C  0.19848319  0.59650578  0.12149481    -0.02680
Br1565     Br  0.17402000  0.58318712  0.09221289    -0.01220
Br1566     Br  0.15429175  0.63862204  0.12808047    -0.01300
Br1567     Br  0.27378524  0.57299706  0.16393521    -0.01260
Br1568     Br  0.24519419  0.61716738  0.20640744    -0.01240
C1569       C  0.21361633  0.48003830  0.14872931    -0.02360
C1570       C  0.21937578  0.46944729  0.12163158     0.07320
C1571       C  0.21585384  0.44034319  0.11701214    -0.02480
C1572       C  0.20636613  0.42246042  0.13876229    -0.02480
C1573       C  0.20150305  0.43311687  0.16577041     0.07450
C1574       C  0.20517291  0.46198213  0.17074268    -0.02680
Br1575     Br  0.20003235  0.47678337  0.20807895    -0.01220
Br1576     Br  0.21725792  0.51934825  0.15612197    -0.01300
Br1577     Br  0.20000077  0.38310755  0.13173657    -0.01260
Br1578     Br  0.22643487  0.42354704  0.08213560    -0.01240
C1579       C  0.31520698  0.41919041  0.09024238    -0.02360
C1580       C  0.32196410  0.44795626  0.09041005     0.07320
C1581       C  0.34404571  0.45679911  0.10804649    -0.02480
C1582       C  0.35302759  0.43942048  0.13020636    -0.02480
C1583       C  0.34318562  0.41171634  0.13227478     0.07450
C1584       C  0.32647674  0.40101421  0.11059959    -0.02680
Br1585     Br  0.32184904  0.36111287  0.10662590    -0.01220
Br1586     Br  0.29460438  0.40352318  0.05970588    -0.01300
Br1587     Br  0.37980803  0.45310889  0.15702923    -0.01260
Br1588     Br  0.36616419  0.48951848  0.09892841    -0.01240
C1589       C  0.43884508  0.70816327  0.10808684    -0.02360
C1590       C  0.45657134  0.72670033  0.12241277     0.07320
C1591       C  0.45302352  0.72952874  0.15202129    -0.02480
C1592       C  0.43174429  0.71454043  0.16643849    -0.02480
C1593       C  0.41124190  0.69985367  0.15130566     0.07450
C1594       C  0.41499504  0.69685973  0.12175524    -0.02680
Br1595     Br  0.38701076  0.67980259  0.09820257    -0.01220
Br1596     Br  0.44783254  0.69628806  0.07017147    -0.01300
Br1597     Br  0.43176142  0.71319683  0.20713405    -0.01260
Br1598     Br  0.47543999  0.75483422  0.17391915    -0.01240
C1599       C  0.32000051  0.62445592  0.09978498    -0.02360
C1600       C  0.32358589  0.59516165  0.10320160     0.07320
C1601       C  0.33558902  0.58482318  0.12845427    -0.02480
C1602       C  0.34317113  0.60354775  0.14985077    -0.02480
C1603       C  0.33706080  0.63228264  0.14714317     0.07450
C1604       C  0.32491134  0.64259423  0.12225530    -0.02680
Br1605     Br  0.31494699  0.68185730  0.11882106    -0.01220
Br1606     Br  0.30941229  0.64021749  0.06383513    -0.01300
Br1607     Br  0.36097905  0.59002926  0.18361568    -0.01260
Br1608     Br  0.33954020  0.54528376  0.13582511    -0.01240
C1609       C  0.22665381  0.73977347  0.25340836    -0.02360
C1610       C  0.24180790  0.72877525  0.27670666     0.07320
C1611       C  0.23910951  0.69952632  0.28257767    -0.02480
C1612       C  0.22201434  0.68235447  0.26585907    -0.02480
C1613       C  0.20785555  0.69359030  0.24257852     0.07450
C1614       C  0.21039002  0.72222881  0.23625005    -0.02680
Br1615     Br  0.19012477  0.73756525  0.20466130    -0.01220
Br1616     Br  0.22431182  0.77951046  0.24661568    -0.01300
Br1617     Br  0.21794829  0.64279966  0.27470907    -0.01260
Br1618     Br  0.25779732  0.68107775  0.31292797    -0.01240
C1619       C  0.32794902  0.70232466  0.24589766    -0.02360
C1620       C  0.32760632  0.71031901  0.21744884     0.07320
C1621       C  0.31411594  0.73545555  0.20977130    -0.02480
C1622       C  0.30103260  0.75269482  0.23033011    -0.02480
C1623       C  0.30033634  0.74452671  0.25927237     0.07450
C1624       C  0.31475435  0.71927024  0.26659068    -0.02680
Br1625     Br  0.32000345  0.70900367  0.30538143    -0.01220
Br1626     Br  0.34785316  0.66846689  0.25658022    -0.01300
Br1627     Br  0.28647674  0.78768645  0.21692051    -0.01260
Br1628     Br  0.31352369  0.74595564  0.17039371    -0.01240
C1629       C  0.36677075  0.81319870  0.26253773    -0.02360
C1630       C  0.35693486  0.83751512  0.24903176     0.07320
C1631       C  0.32832260  0.84503045  0.25132139    -0.02480
C1632       C  0.30922620  0.82765280  0.26616825    -0.02480
C1633       C  0.31856367  0.80255593  0.27961418     0.07450
C1634       C  0.34786245  0.79567877  0.27753308    -0.02680
Br1635     Br  0.36356549  0.76215713  0.29317771    -0.01220
Br1636     Br  0.40664682  0.80397152  0.25986846    -0.01300
Br1637     Br  0.26966159  0.83666140  0.26348826    -0.01260
Br1638     Br  0.31515107  0.87854840  0.23239848    -0.01240
C1639       C  0.17890725  0.72219654  0.34597167    -0.02360
C1640       C  0.18881487  0.70533918  0.36816270     0.07320
C1641       C  0.21739614  0.70676919  0.37546699    -0.02480
C1642       C  0.23621614  0.72426069  0.36016089    -0.02480
C1643       C  0.22664520  0.74148808  0.33758900     0.07450
C1644       C  0.19744214  0.74009289  0.33085976    -0.02680
Br1645     Br  0.18117931  0.76157743  0.30105668    -0.01220
Br1646     Br  0.13924258  0.72102312  0.33653257    -0.01300
Br1647     Br  0.27587666  0.72040256  0.36779811    -0.01260
Br1648     Br  0.23093237  0.68334982  0.40572405    -0.01240
C1649       C  0.11023965  0.57851598  0.35587668    -0.02360
C1650       C  0.08213443  0.58495544  0.34785444     0.07320
C1651       C  0.07319466  0.61342221  0.34821040    -0.02480
C1652       C  0.09120156  0.63446714  0.35767540    -0.02480
C1653       C  0.11819528  0.62752896  0.36758607     0.07450
C1654       C  0.12786023  0.59962616  0.36647141    -0.02680
Br1655     Br  0.16511348  0.59047110  0.37986203    -0.01220
Br1656     Br  0.12548737  0.54118034  0.35134613    -0.01300
Br1657     Br  0.07912662  0.67344804  0.35648600    -0.01260
Br1658     Br  0.03778048  0.62552824  0.33316424    -0.01240
C1659       C  0.61832481  0.85885047  0.96208832    -0.02360
C1660       C  0.62500142  0.84555241  0.93640210     0.07320
C1661       C  0.61004183  0.82120022  0.92912191    -0.02480
C1662       C  0.58924549  0.80992238  0.94741527    -0.02480
C1663       C  0.58158787  0.82383780  0.97305349     0.07450
C1664       C  0.59591733  0.84910803  0.97946633    -0.02680
Br1665     Br  0.58404471  0.87260334  0.01046581    -0.01220
Br1666     Br  0.64053041  0.89051495  0.97380952    -0.01300
Br1667     Br  0.57166380  0.77546971  0.93508979    -0.01260
Br1668     Br  0.61637524  0.80370361  0.89291906    -0.01240
C1669       C  0.62027115  0.96996882  0.85285190    -0.02360
C1670       C  0.59235529  0.96366911  0.84418549     0.07320
C1671       C  0.58481924  0.93490124  0.84368471    -0.02480
C1672       C  0.60126806  0.91433505  0.85691815    -0.02480
C1673       C  0.62784014  0.92114198  0.86751161     0.07450
C1674       C  0.63767374  0.94884711  0.86490444    -0.02680
Br1675     Br  0.67493969  0.95759763  0.87801708    -0.01220
Br1676     Br  0.63675058  0.00598423  0.84491746    -0.01300
Br1677     Br  0.58784560  0.87591164  0.85874549    -0.01260
Br1678     Br  0.55875202  0.92070838  0.81726187    -0.01240
C1679       C  0.45467596  0.84039300  0.93497537    -0.02360
C1680       C  0.42758760  0.84956967  0.94357538     0.07320
C1681       C  0.42140137  0.85263806  0.97236140    -0.02480
C1682       C  0.44155226  0.84447536  0.99253052    -0.02480
C1683       C  0.46769155  0.83239781  0.98377555     0.07450
C1684       C  0.47480490  0.83276798  0.95492327    -0.02680
Br1685     Br  0.51273743  0.82424080  0.94238979    -0.01220
Br1686     Br  0.46427867  0.83717661  0.89565299    -0.01300
Br1687     Br  0.43302762  0.85080338  0.03159590    -0.01260
Br1688     Br  0.38508993  0.86756556  0.98387512    -0.01240
C1689       C  0.41792217  0.94032163  0.87224332    -0.02360
C1690       C  0.41750561  0.91174238  0.86498404     0.07320
C1691       C  0.43973195  0.90077559  0.84859886    -0.02480
C1692       C  0.46429271  0.91632219  0.84458965    -0.02480
C1693       C  0.46379771  0.94570002  0.84792725     0.07450
C1694       C  0.44029873  0.95766542  0.86264325    -0.02680
Br1695     Br  0.44008544  0.99636044  0.87391933    -0.01220
Br1696     Br  0.38770186  0.95519334  0.89544617    -0.01300
Br1697     Br  0.49907683  0.89534071  0.84466818    -0.01260
Br1698     Br  0.43771274  0.86389738  0.83248549    -0.01240
C1699       C  0.22102720  0.61879763  0.94289373    -0.02360
C1700       C  0.19189547  0.62521598  0.94526333     0.07320
C1701       C  0.17624376  0.61274500  0.96775137    -0.02480
C1702       C  0.18842196  0.59088652  0.98387614    -0.02480
C1703       C  0.21770519  0.58521207  0.98140723     0.07450
C1704       C  0.23388688  0.60286454  0.96374389    -0.02680
Br1705     Br  0.26956417  0.61686630  0.97531705    -0.01220
Br1706     Br  0.24473509  0.62872167  0.91098479    -0.01300
Br1707     Br  0.16474998  0.56909703  0.00896016    -0.01260
Br1708     Br  0.13882282  0.62625507  0.97765147    -0.01240
C1709       C  0.25932377  0.34563690  0.82708192    -0.02360
C1710       C  0.24957677  0.31786229  0.82184688     0.07320
C1711       C  0.22454313  0.30931497  0.83635520    -0.02480
C1712       C  0.20857991  0.32828616  0.85305751    -0.02480
C1713       C  0.21797159  0.35587239  0.85732902     0.07450
C1714       C  0.24368292  0.36420939  0.84470029    -0.02680
Br1715     Br  0.25679110  0.40193560  0.85046443    -0.01220
Br1716     Br  0.29178772  0.36092971  0.80783070    -0.01300
Br1717     Br  0.17424242  0.31591008  0.87165921    -0.01260
Br1718     Br  0.21392438  0.27043746  0.83762958    -0.01240
C1719       C  0.21333446  0.44191704  0.93781090    -0.02360
C1720       C  0.20128832  0.41556375  0.94424184     0.07320
C1721       C  0.19089613  0.41061483  0.97171267    -0.02480
C1722       C  0.19441339  0.43090297  0.99286604    -0.02480
C1723       C  0.20870217  0.45628821  0.98692445     0.07450
C1724       C  0.21526660  0.46272363  0.95854858    -0.02680
Br1725     Br  0.22339277  0.50067712  0.94674879    -0.01220
Br1726     Br  0.22591767  0.45043628  0.89995973    -0.01300
Br1727     Br  0.17688281  0.42529017  0.02912690    -0.01260
Br1728     Br  0.17193695  0.37583671  0.98022866    -0.01240
C1729       C  0.91340016  0.44992340  0.73156628    -0.02360
C1730       C  0.92581787  0.42511477  0.72089502     0.07320
C1731       C  0.95565241  0.42401698  0.71742780    -0.02480
C1732       C  0.97256382  0.44687855  0.72502195    -0.02480
C1733       C  0.96059531  0.46984630  0.73971868     0.07450
C1734       C  0.93063544  0.47192286  0.74134093    -0.02680
Br1735     Br  0.91288801  0.50523385  0.75644825    -0.01220
Br1736     Br  0.87278602  0.45391126  0.73270794    -0.01300
Br1737     Br  0.01239587  0.44470121  0.71656145    -0.01260
Br1738     Br  0.97474516  0.38970097  0.70638189    -0.01240
C1739       C  0.09864814  0.45704676  0.72083544    -0.02360
C1740       C  0.09708935  0.45755368  0.75020848     0.07320
C1741       C  0.12087698  0.44788888  0.76505931    -0.02480
C1742       C  0.13934740  0.42824809  0.75274713    -0.02480
C1743       C  0.13681675  0.42234993  0.72374657     0.07450
C1744       C  0.12014167  0.44116454  0.70769074    -0.02680
Br1745     Br  0.12874012  0.44711924  0.66862050    -0.01220
Br1746     Br  0.07382235  0.48035913  0.69903316    -0.01300
Br1747     Br  0.16739386  0.41158095  0.77687191    -0.01260
Br1748     Br  0.13264911  0.46578204  0.79878722    -0.01240
C1749       C  0.12841272  0.59348113  0.86716692    -0.02360
C1750       C  0.12086749  0.62137960  0.87299358     0.07320
C1751       C  0.09230047  0.62955745  0.87260138    -0.02480
C1752       C  0.07150395  0.61005361  0.86494811    -0.02480
C1753       C  0.07901553  0.58233509  0.85752114     0.07450
C1754       C  0.10750814  0.57386560  0.86103875    -0.02680
Br1755     Br  0.11927200  0.53565265  0.86018722    -0.01220
Br1756     Br  0.16798083  0.58203728  0.86795196    -0.01300
Br1757     Br  0.03244933  0.61991398  0.86898608    -0.01260
Br1758     Br  0.08182661  0.66718354  0.88331764    -0.01240
C1759       C  0.09091071  0.42395617  0.84266828    -0.02360
C1760       C  0.08716627  0.45174163  0.85225947     0.07320
C1761       C  0.10109319  0.45992890  0.87635139    -0.02480
C1762       C  0.12525553  0.44539650  0.88481886    -0.02480
C1763       C  0.13122923  0.41806321  0.87401203     0.07450
C1764       C  0.11198266  0.40660930  0.85466060    -0.02680
Br1765     Br  0.11339359  0.36733675  0.84511464    -0.01220
Br1766     Br  0.06759692  0.40948249  0.81335999    -0.01300
Br1767     Br  0.15100783  0.46668391  0.90733450    -0.01260
Br1768     Br  0.08441836  0.48876770  0.89956880    -0.01240
C1769       C  0.11639266  0.60223668  0.71452706    -0.02360
C1770       C  0.13006061  0.62092221  0.73315378     0.07320
C1771       C  0.13330660  0.61190147  0.76134765    -0.02480
C1772       C  0.12280234  0.58565841  0.76983406    -0.02480
C1773       C  0.10208813  0.57211943  0.75397102     0.07450
C1774       C  0.10019562  0.57965020  0.72533623    -0.02680
Br1775     Br  0.07694313  0.55832629  0.70043979    -0.01220
Br1776     Br  0.12084646  0.60626797  0.67426510    -0.01300
Br1777     Br  0.14202647  0.56598969  0.79903709    -0.01260
Br1778     Br  0.14787085  0.63550393  0.79053127    -0.01240
C1779       C  0.23751331  0.69639135  0.82950455    -0.02360
C1780       C  0.23748850  0.72597836  0.83315351     0.07320
C1781       C  0.21709510  0.73741666  0.85230640    -0.02480
C1782       C  0.19851187  0.72004666  0.86785074    -0.02480
C1783       C  0.19909653  0.69099919  0.86411007     0.07450
C1784       C  0.21821517  0.67923224  0.84454148    -0.02680
Br1785     Br  0.21797379  0.63912599  0.83858176    -0.01220
Br1786     Br  0.26347173  0.67784995  0.80469988    -0.01300
Br1787     Br  0.17164233  0.73584495  0.89444820    -0.01260
Br1788     Br  0.21345893  0.77691970  0.85835819    -0.01240
C1789       C  0.19709055  0.74638535  0.77574009    -0.02360
C1790       C  0.22696086  0.74301133  0.77302404     0.07320
C1791       C  0.23683390  0.72277425  0.75313992    -0.02480
C1792       C  0.21776676  0.70661502  0.73717038    -0.02480
C1793       C  0.18837657  0.70968992  0.74095488     0.07450
C1794       C  0.17825728  0.72935164  0.76062781    -0.02680
Br1795     Br  0.13791989  0.73182932  0.76797363    -0.01220
Br1796     Br  0.18007494  0.77463337  0.79863393    -0.01300
Br1797     Br  0.23175791  0.68006801  0.70979321    -0.01260
Br1798     Br  0.27659715  0.71611982  0.74727912    -0.01240
C1799       C  0.30705880  0.81535881  0.85825356    -0.02360
C1800       C  0.31767694  0.79508003  0.83886529     0.07320
C1801       C  0.34750665  0.79071137  0.83801632    -0.02480
C1802       C  0.36561879  0.80683215  0.85479948    -0.02480
C1803       C  0.35469992  0.82858629  0.87152620     0.07450
C1804       C  0.32541366  0.83240302  0.87370833    -0.02680
Br1805     Br  0.31066861  0.86129403  0.89830892    -0.01220
Br1806     Br  0.26738283  0.82084863  0.86465711    -0.01300
Br1807     Br  0.40580189  0.79913660  0.85517485    -0.01260
Br1808     Br  0.36539727  0.76355425  0.81441265    -0.01240
C1809       C  0.33671477  0.94567524  0.66832319    -0.02360
C1810       C  0.34025072  0.91782059  0.65933289     0.07320
C1811       C  0.33545294  0.91127331  0.63110961    -0.02480
C1812       C  0.32597101  0.93238495  0.61229883    -0.02480
C1813       C  0.32448265  0.96097722  0.62099852     0.07450
C1814       C  0.33269316  0.96728325  0.64867023    -0.02680
Br1815     Br  0.33984975  0.00528396  0.66010202    -0.01220
Br1816     Br  0.33626452  0.95424350  0.70800316    -0.01300
Br1817     Br  0.31457080  0.92081889  0.57550852    -0.01260
Br1818     Br  0.34093061  0.87312665  0.61891320    -0.01240
C1819       C  0.43938628  0.90780593  0.73746303    -0.02360
C1820       C  0.41922054  0.91918949  0.71883886     0.07320
C1821       C  0.42331121  0.94766939  0.70960880    -0.02480
C1822       C  0.44332938  0.96473572  0.72275739    -0.02480
C1823       C  0.45814394  0.95470683  0.74589520     0.07450
C1824       C  0.45847321  0.92558822  0.75116071    -0.02680
Br1825     Br  0.48621005  0.90953496  0.77531892    -0.01220
Br1826     Br  0.44264252  0.86763347  0.74256410    -0.01300
Br1827     Br  0.45343128  0.00102488  0.70739962    -0.01260
Br1828     Br  0.40289332  0.96576239  0.67974136    -0.01240
C1829       C  0.31876002  0.86350866  0.76402136    -0.02360
C1830       C  0.33731372  0.85339150  0.74315202     0.07320
C1831       C  0.34120010  0.82423142  0.74069333    -0.02480
C1832       C  0.32604284  0.80530414  0.75832767    -0.02480
C1833       C  0.30605974  0.81501418  0.77880234     0.07450
C1834       C  0.30358190  0.84476002  0.78186111    -0.02680
Br1835     Br  0.28115165  0.86178406  0.81065293    -0.01220
Br1836     Br  0.31409538  0.90367182  0.76766097    -0.01300
Br1837     Br  0.33326177  0.76587707  0.75347832    -0.01260
Br1838     Br  0.36728071  0.81031243  0.71240014    -0.01240
C1839       C  0.40083576  0.72963952  0.97017211    -0.02360
C1840       C  0.40833022  0.70453602  0.95653960     0.07320
C1841       C  0.43462960  0.69178055  0.96217345    -0.02480
C1842       C  0.45210475  0.70235514  0.98322229    -0.02480
C1843       C  0.44556774  0.72837171  0.99618705     0.07450
C1844       C  0.41951944  0.74201747  0.98920645    -0.02680
Br1845     Br  0.40737934  0.77734350  0.00552090    -0.01220
Br1846     Br  0.36413656  0.74660101  0.96397635    -0.01300
Br1847     Br  0.48286678  0.67871993  0.99577775    -0.01260
Br1848     Br  0.44691122  0.65963261  0.94049960    -0.01240
C1849       C  0.33498128  0.59653358  0.94059090    -0.02360
C1850       C  0.35387999  0.61561589  0.95281264     0.07320
C1851       C  0.36572010  0.60687214  0.97884592    -0.02480
C1852       C  0.35013940  0.58925090  0.99699148    -0.02480
C1853       C  0.32597250  0.57593603  0.98711849     0.07450
C1854       C  0.32083210  0.57675612  0.95782689    -0.02680
Br1855     Br  0.29345437  0.55262604  0.94097157    -0.01220
Br1856     Br  0.33268599  0.59324157  0.90024148    -0.01300
Br1857     Br  0.36309296  0.58178531  0.03447208    -0.01260
Br1858     Br  0.40603666  0.60824620  0.98489218    -0.01240
C1859       C  0.31886387  0.71482076  0.83989037    -0.02360
C1860       C  0.29872006  0.73471234  0.85037944     0.07320
C1861       C  0.29365502  0.73462593  0.87996175    -0.02480
C1862       C  0.30850789  0.71612157  0.89795901    -0.02480
C1863       C  0.33008245  0.69861752  0.88740802     0.07450
C1864       C  0.33491919  0.69770937  0.85828907    -0.02680
Br1865     Br  0.36388510  0.67277228  0.84384109    -0.01220
Br1866     Br  0.32513671  0.70998315  0.80024162    -0.01300
Br1867     Br  0.29931048  0.71429274  0.93766334    -0.01260
Br1868     Br  0.26757204  0.75968618  0.89773479    -0.01240
C1869       C  0.06382032  0.72508289  0.65831733    -0.02360
C1870       C  0.07111939  0.72157737  0.62951631     0.07320
C1871       C  0.09641562  0.70680819  0.62254166    -0.02480
C1872       C  0.11462968  0.69741075  0.64394856    -0.02480
C1873       C  0.10816807  0.70288784  0.67236724     0.07450
C1874       C  0.08248893  0.71623413  0.67949730    -0.02680
Br1875     Br  0.07311868  0.72255819  0.71853414    -0.01220
Br1876     Br  0.02765106  0.74104086  0.66926243    -0.01300
Br1877     Br  0.14876530  0.67686202  0.63449749    -0.01260
Br1878     Br  0.10749571  0.70002925  0.58392886    -0.01240
C1879       C  0.09498128  0.73881262  0.46332951    -0.02360
C1880       C  0.07642577  0.72353450  0.48089700     0.07320
C1881       C  0.07975384  0.69402361  0.48166981    -0.02480
C1882       C  0.10070030  0.68100179  0.46449511    -0.02480
C1883       C  0.11466812  0.69666123  0.44291544     0.07450
C1884       C  0.10951341  0.72575798  0.44148814    -0.02680
Br1885     Br  0.12050283  0.74935261  0.41007036    -0.01220
Br1886     Br  0.11447915  0.77042649  0.47745087    -0.01300
Br1887     Br  0.11107189  0.64243747  0.47199026    -0.01260
Br1888     Br  0.05636543  0.67127912  0.50614722    -0.01240
C1889       C  0.93609731  0.72370544  0.44091559    -0.02360
C1890       C  0.91055091  0.71010633  0.44754543     0.07320
C1891       C  0.90334284  0.70480998  0.47581793    -0.02480
C1892       C  0.92125670  0.71382487  0.49745104    -0.02480
C1893       C  0.94734516  0.72708942  0.49077209     0.07450
C1894       C  0.95528523  0.73020171  0.46205543    -0.02680
Br1895     Br  0.99291766  0.74098203  0.45003550    -0.01220
Br1896     Br  0.94536567  0.73294989  0.40230549    -0.01300
Br1897     Br  0.91086346  0.70542433  0.53596686    -0.01260
Br1898     Br  0.86884997  0.68507079  0.48454339    -0.01240
C1899       C  0.20964823  0.83894126  0.75277639    -0.02360
C1900       C  0.21371994  0.83644532  0.72378773     0.07320
C1901       C  0.23520445  0.81879735  0.71328386    -0.02480
C1902       C  0.25087032  0.80156508  0.73157030    -0.02480
C1903       C  0.24638102  0.80284671  0.76110541     0.07450
C1904       C  0.22626456  0.82285089  0.77134553    -0.02680
Br1905     Br  0.22046014  0.82917003  0.81069741    -0.01220
Br1906     Br  0.18093525  0.86447775  0.76671434    -0.01300
Br1907     Br  0.27762185  0.77674458  0.71436277    -0.01260
Br1908     Br  0.24349092  0.81883841  0.67333028    -0.01240
C1909       C  0.14763894  0.81165921  0.63091860    -0.02360
C1910       C  0.14025627  0.83251472  0.65024490     0.07320
C1911       C  0.11331095  0.84502711  0.64981590    -0.02480
C1912       C  0.09378733  0.83744968  0.62930715    -0.02480
C1913       C  0.10100647  0.81640849  0.60939867     0.07450
C1914       C  0.12861311  0.80411609  0.61002011    -0.02680
Br1915     Br  0.14271495  0.77886180  0.58114047    -0.01220
Br1916     Br  0.18453418  0.79415537  0.63261719    -0.01300
Br1917     Br  0.05825815  0.85769233  0.62866349    -0.01260
Br1918     Br  0.10358852  0.87306929  0.67758490    -0.01240
C1919       C  0.23288097  0.92031550  0.65469751    -0.02360
C1920       C  0.20393843  0.91332827  0.65314124     0.07320
C1921       C  0.18649063  0.92997022  0.63518344    -0.02480
C1922       C  0.19916174  0.94795481  0.61504075    -0.02480
C1923       C  0.22800921  0.95389643  0.61702332     0.07450
C1924       C  0.24274132  0.94366198  0.64017493    -0.02680
Br1925     Br  0.26577286  0.96848421  0.66095952    -0.01220
Br1926     Br  0.26162465  0.89753043  0.67216024    -0.01300
Br1927     Br  0.17731179  0.96518413  0.58572270    -0.01260
Br1928     Br  0.14577362  0.92997852  0.63878714    -0.01240
C1929       C  0.20350664  0.83355499  0.36422927    -0.02360
C1930       C  0.20899646  0.83288528  0.39308869     0.07320
C1931       C  0.23043948  0.81507016  0.40307169    -0.02480
C1932       C  0.24791068  0.79975039  0.38421029    -0.02480
C1933       C  0.24267865  0.80007780  0.35482820     0.07450
C1934       C  0.21989351  0.81722042  0.34532798    -0.02680
Br1935     Br  0.21278635  0.82207993  0.30598446    -0.01220
Br1936     Br  0.17339024  0.85744127  0.35070130    -0.01300
Br1937     Br  0.27959476  0.78065211  0.40012235    -0.01260
Br1938     Br  0.23515322  0.81094196  0.44306323    -0.01240
C1939       C  0.10456932  0.84039189  0.44984211    -0.02360
C1940       C  0.12917903  0.85079325  0.46227271     0.07320
C1941       C  0.13060069  0.85200784  0.49192725    -0.02480
C1942       C  0.10786983  0.84257822  0.50869114    -0.02480
C1943       C  0.08480877  0.82906116  0.49652849     0.07450
C1944       C  0.08285468  0.82880508  0.46679329    -0.02680
Br1945     Br  0.05326660  0.80873726  0.44846296    -0.01220
Br1946     Br  0.10084391  0.84138631  0.40947252    -0.01300
Br1947     Br  0.10788000  0.84961034  0.54825649    -0.01260
Br1948     Br  0.16448429  0.86413500  0.51040873    -0.01240
C1949       C  0.22048734  0.91234919  0.47505771    -0.02360
C1950       C  0.20333702  0.91967584  0.45227739     0.07320
C1951       C  0.19460437  0.94782601  0.44896556    -0.02480
C1952       C  0.20382614  0.96855035  0.46788788    -0.02480
C1953       C  0.22056589  0.96104598  0.49114953     0.07450
C1954       C  0.22746489  0.93238399  0.49516646    -0.02680
Br1955     Br  0.24474249  0.91882763  0.52879970    -0.01220
Br1956     Br  0.23417781  0.87431427  0.47940804    -0.01300
Br1957     Br  0.19154190  0.00673486  0.46332594    -0.01260
Br1958     Br  0.17027443  0.95773819  0.41829765    -0.01240
C1959       C  0.93982384  0.63585587  0.85644656    -0.02360
C1960       C  0.91749554  0.62223777  0.87073488     0.07320
C1961       C  0.92074656  0.59342364  0.87787625    -0.02480
C1962       C  0.94630524  0.57930580  0.87212838    -0.02480
C1963       C  0.96603751  0.59112397  0.85284438     0.07450
C1964       C  0.96252950  0.62003330  0.84518297    -0.02680
Br1965     Br  0.98640584  0.63887505  0.81758141    -0.01220
Br1966     Br  0.93979710  0.67629027  0.85253945    -0.01300
Br1967     Br  0.95247916  0.54335488  0.89041119    -0.01260
Br1968     Br  0.88923024  0.57090862  0.89118264    -0.01240
C1969       C  0.82095348  0.59816820  0.92205323    -0.02360
C1970       C  0.83574838  0.62190641  0.93118636     0.07320
C1971       C  0.84235214  0.62456966  0.95971297    -0.02480
C1972       C  0.83436904  0.60359297  0.97919796    -0.02480
C1973       C  0.81901616  0.57979403  0.97019523     0.07450
C1974       C  0.81268385  0.57722366  0.94124341    -0.02680
Br1975     Br  0.79399928  0.54434574  0.92655598    -0.01220
Br1976     Br  0.81359750  0.59302508  0.88262431    -0.01300
Br1977     Br  0.84401675  0.60906452  0.01808628    -0.01260
Br1978     Br  0.86238328  0.65744189  0.97182268    -0.01240
C1979       C  0.83794866  0.33087597  0.87151137    -0.02360
C1980       C  0.83744217  0.35922886  0.86343054     0.07320
C1981       C  0.82307512  0.36731038  0.83896217    -0.02480
C1982       C  0.81030585  0.34699859  0.82190063    -0.02480
C1983       C  0.80995670  0.31837673  0.83025220     0.07450
C1984       C  0.82436135  0.31057972  0.85514369    -0.02680
Br1985     Br  0.83015361  0.27163603  0.86472793    -0.01220
Br1986     Br  0.85801169  0.31992225  0.90492356    -0.01300
Br1987     Br  0.79643541  0.35892754  0.78599385    -0.01260
Br1988     Br  0.82084620  0.40657008  0.82895831    -0.01240
C1989       C  0.92850507  0.41752983  0.83917885    -0.02360
C1990       C  0.92617793  0.41503015  0.86875742     0.07320
C1991       C  0.94955571  0.42337305  0.88509143    -0.02480
C1992       C  0.97214593  0.43834320  0.87235222    -0.02480
C1993       C  0.97363464  0.44127713  0.84288147     0.07450
C1994       C  0.95370209  0.42693891  0.82674539    -0.02680
Br1995     Br  0.96090810  0.41779545  0.78815090    -0.01220
Br1996     Br  0.89648447  0.41353788  0.81474345    -0.01300
Br1997     Br  0.00189381  0.45339235  0.89494591    -0.01260
Br1998     Br  0.95137771  0.41381407  0.92448248    -0.01240
C1999       C  0.83453873  0.42085053  0.96060694    -0.02360
C2000       C  0.84673123  0.43430440  0.93683273     0.07320
C2001       C  0.84894365  0.46390804  0.93671645    -0.02480
C2002       C  0.83976108  0.47936554  0.96019846    -0.02480
C2003       C  0.82394328  0.46645747  0.98178532     0.07450
C2004       C  0.82195810  0.43691277  0.98224386    -0.02680
Br2005     Br  0.80203551  0.41801656  0.01228530    -0.01220
Br2006     Br  0.83583769  0.38045325  0.96441345    -0.01300
Br2007     Br  0.85261158  0.51708219  0.96468253    -0.01260
Br2008     Br  0.86194287  0.48421587  0.90375615    -0.01240
C2009       C  0.81662805  0.91984366  0.63508856    -0.02360
C2010       C  0.83805598  0.92739436  0.65366905     0.07320
C2011       C  0.84724633  0.95544661  0.65448183    -0.02480
C2012       C  0.83495357  0.97585993  0.63667226    -0.02480
C2013       C  0.81306172  0.96838700  0.61835096     0.07450
C2014       C  0.80460319  0.93992095  0.61730813    -0.02680
Br2015     Br  0.77936698  0.92572703  0.58971511    -0.01220
Br2016     Br  0.80550974  0.88092961  0.63141652    -0.01300
Br2017     Br  0.85038667  0.01309065  0.63507422    -0.01260
Br2018     Br  0.87722739  0.96547119  0.67942358    -0.01240
C2019       C  0.93029787  0.84838815  0.58857527    -0.02360
C2020       C  0.95423017  0.83562764  0.60025890     0.07320
C2021       C  0.95899518  0.83790578  0.62944614    -0.02480
C2022       C  0.93792918  0.84939634  0.64712848    -0.02480
C2023       C  0.91233586  0.85903285  0.63569118     0.07450
C2024       C  0.90897175  0.85947793  0.60618239    -0.02680
Br2025     Br  0.87457771  0.87336046  0.58950154    -0.01220
Br2026     Br  0.92794198  0.85240836  0.54845963    -0.01300
Br2027     Br  0.94368632  0.85096326  0.68719351    -0.01260
Br2028     Br  0.99267056  0.82230745  0.64607141    -0.01240
C2029       C  0.82943976  0.84124030  0.34659813    -0.02360
C2030       C  0.82853080  0.83620060  0.37568103     0.07320
C2031       C  0.81169364  0.81427573  0.38617449    -0.02480
C2032       C  0.79819097  0.79566500  0.36779968    -0.02480
C2033       C  0.79841424  0.80059387  0.33827433     0.07450
C2034       C  0.81404024  0.82412102  0.32811390    -0.02680
Br2035     Br  0.81728298  0.83195752  0.28848950    -0.01220
Br2036     Br  0.85216990  0.87174872  0.33223793    -0.01300
Br2037     Br  0.78205258  0.76293006  0.38474881    -0.01260
Br2038     Br  0.80569487  0.81084926  0.42620777    -0.01240
C2039       C  0.83195181  0.91280205  0.47107327    -0.02360
C2040       C  0.83860786  0.91681169  0.44243248     0.07320
C2041       C  0.83414135  0.94342075  0.43010965    -0.02480
C2042       C  0.82296805  0.96579770  0.44639391    -0.02480
C2043       C  0.81805822  0.96226864  0.47566662     0.07450
C2044       C  0.82310188  0.93546944  0.48780129    -0.02680
Br2045     Br  0.81679667  0.92825244  0.52725068    -0.01220
Br2046     Br  0.83287621  0.87545813  0.48720830    -0.01300
Br2047     Br  0.81475586  0.00115149  0.42829758    -0.01260
Br2048     Br  0.84378368  0.94919797  0.39103373    -0.01240
C2049       C  0.93874580  0.85088881  0.43863606    -0.02360
C2050       C  0.91054094  0.84186870  0.44157799     0.07320
C2051       C  0.90366512  0.82259006  0.46303128    -0.02480
C2052       C  0.92441998  0.81275557  0.48163025    -0.02480
C2053       C  0.95325888  0.82021448  0.47780157     0.07450
C2054       C  0.95996545  0.84012335  0.45653903    -0.02680
Br2055     Br  0.99733415  0.85567799  0.45415358    -0.01220
Br2056     Br  0.94815598  0.87798350  0.40981901    -0.01300
Br2057     Br  0.91129183  0.79079273  0.51307293    -0.01260
Br2058     Br  0.86527130  0.80974510  0.46755645    -0.01240
C2059       C  0.36045654  0.91670034  0.47930323    -0.02360
C2060       C  0.34609387  0.90895525  0.45462844     0.07320
C2061       C  0.31933319  0.92096793  0.44948997    -0.02480
C2062       C  0.30942674  0.94328413  0.46598437    -0.02480
C2063       C  0.32285741  0.95035556  0.49133454     0.07450
C2064       C  0.34860660  0.93689095  0.49784441    -0.02680
Br2065     Br  0.36910255  0.94836649  0.53045851    -0.01220
Br2066     Br  0.39643401  0.89954230  0.48759441    -0.01300
Br2067     Br  0.28242220  0.96781540  0.44857672    -0.01260
Br2068     Br  0.29603229  0.90872917  0.41884672    -0.01240
C2069       C  0.40643100  0.95256135  0.37189638    -0.02360
C2070       C  0.41493389  0.92493384  0.37847224     0.07320
C2071       C  0.44241562  0.91596731  0.37133587    -0.02480
C2072       C  0.46137588  0.93455057  0.35790273    -0.02480
C2073       C  0.45440753  0.96333363  0.35443330     0.07450
C2074       C  0.42570279  0.97143403  0.35930593    -0.02680
Br2075     Br  0.41054567  0.00640503  0.34477025    -0.01220
Br2076     Br  0.36755134  0.96402073  0.37842466    -0.01300
Br2077     Br  0.49185603  0.91802032  0.33663272    -0.01260
Br2078     Br  0.45380840  0.87775975  0.37915959    -0.01240
C2079       C  0.34596706  0.82006365  0.36986457    -0.02360
C2080       C  0.34251324  0.84931359  0.36948020     0.07320
C2081       C  0.32080513  0.86116821  0.35330717    -0.02480
C2082       C  0.30084029  0.84395537  0.34006739    -0.02480
C2083       C  0.30450291  0.81429335  0.33927512     0.07450
C2084       C  0.32776462  0.80276544  0.35429496    -0.02680
Br2085     Br  0.33384223  0.76288633  0.35628846    -0.01220
Br2086     Br  0.37623675  0.80393705  0.39155280    -0.01300
Br2087     Br  0.26770145  0.86253633  0.32661554    -0.01260
Br2088     Br  0.31897853  0.90147967  0.34855092    -0.01240
C2089       C  0.92639553  0.34668485  0.47509922    -0.02360
C2090       C  0.91818139  0.33309575  0.45022855     0.07320
C2091       C  0.93326616  0.30904108  0.44132333    -0.02480
C2092       C  0.95719375  0.29979611  0.45600706    -0.02480
C2093       C  0.96579733  0.31372227  0.48099581     0.07450
C2094       C  0.95098207  0.33821429  0.48932543    -0.02680
Br2095     Br  0.96656493  0.36322069  0.51678094    -0.01220
Br2096     Br  0.90430701  0.37807622  0.48887319    -0.01300
Br2097     Br  0.97906246  0.26962748  0.43861346    -0.01260
Br2098     Br  0.92270854  0.28908942  0.40767949    -0.01240
C2099       C  0.92421979  0.43507855  0.38342146    -0.02360
C2100       C  0.93048357  0.40624157  0.38296771     0.07320
C2101       C  0.95824859  0.39702081  0.37674448    -0.02480
C2102       C  0.97891951  0.41644944  0.36873185    -0.02480
C2103       C  0.97152131  0.44478353  0.36454259     0.07450
C2104       C  0.94477602  0.45455047  0.37440589    -0.02680
Br2105     Br  0.93481012  0.49393448  0.37389290    -0.01220
Br2106     Br  0.88713457  0.44754949  0.39552307    -0.01300
Br2107     Br  0.01787214  0.40466838  0.36605385    -0.01260
Br2108     Br  0.96810194  0.35761099  0.37874901    -0.01240
C2109       C  0.82691702  0.33460542  0.37012508    -0.02360
C2110       C  0.85628207  0.33422765  0.36601636     0.07320
C2111       C  0.86789443  0.31930762  0.34311986    -0.02480
C2112       C  0.85031006  0.30391221  0.32504749    -0.02480
C2113       C  0.82045054  0.30355464  0.32924663     0.07450
C2114       C  0.80919207  0.32005218  0.35167833    -0.02680
Br2115     Br  0.76933077  0.32611551  0.35618817    -0.01220
Br2116     Br  0.81098876  0.35627665  0.40076717    -0.01300
Br2117     Br  0.86864016  0.28417905  0.29499858    -0.01260
Br2118     Br  0.90840349  0.31961620  0.33684352    -0.01240
C2119       C  0.39917360  0.33458051  0.98182486    -0.02360
C2120       C  0.40756359  0.34564447  0.95554547     0.07320
C2121       C  0.43641423  0.34913715  0.94914131    -0.02480
C2122       C  0.45703894  0.33993952  0.96825795    -0.02480
C2123       C  0.44867405  0.32702950  0.99397436     0.07450
C2124       C  0.41961952  0.32572917  0.00111919    -0.02680
Br2125     Br  0.40757963  0.31262225  0.03776336    -0.01220
Br2126     Br  0.35947525  0.33082585  0.99111579    -0.01300
Br2127     Br  0.49642270  0.34401470  0.95784792    -0.01260
Br2128     Br  0.44743249  0.36623041  0.91383053    -0.01240
C2129       C  0.34162592  0.44094376  0.93892238    -0.02360
C2130       C  0.33138481  0.41322210  0.93904593     0.07320
C2131       C  0.30753992  0.40655625  0.95564370    -0.02480
C2132       C  0.29438560  0.42709656  0.97238400    -0.02480
C2133       C  0.30417110  0.45508865  0.97220665     0.07450
C2134       C  0.32808786  0.46180085  0.95538251    -0.02680
Br2135     Br  0.34434266  0.49867144  0.95715791    -0.01220
Br2136     Br  0.37464521  0.45001214  0.91653876    -0.01300
Br2137     Br  0.26365040  0.41527966  0.99597173    -0.01260
Br2138     Br  0.29364437  0.36855328  0.95706940    -0.01240
C2139       C  0.34673858  0.32834554  0.84974340    -0.02360
C2140       C  0.33917224  0.32794609  0.87833090     0.07320
C2141       C  0.31721140  0.31042196  0.88751805    -0.02480
C2142       C  0.29997715  0.29674780  0.86802449    -0.02480
C2143       C  0.30687150  0.29712413  0.83877897     0.07450
C2144       C  0.33136247  0.31241689  0.83021333    -0.02680
Br2145     Br  0.34181563  0.31586628  0.79107708    -0.01220
Br2146     Br  0.37800805  0.35139710  0.83752393    -0.01300
Br2147     Br  0.26598361  0.28100126  0.88320712    -0.01260
Br2148     Br  0.31156970  0.30429377  0.92734992    -0.01240
C2149       C  0.82092171  0.82265013  0.75326586    -0.02360
C2150       C  0.80223931  0.80229500  0.74223259     0.07320
C2151       C  0.80139306  0.79968572  0.71254677    -0.02480
C2152       C  0.81824082  0.81697708  0.69487723    -0.02480
C2153       C  0.83558903  0.83772640  0.70637487     0.07450
C2154       C  0.83728385  0.84008376  0.73555189    -0.02680
Br2155     Br  0.86344497  0.86673288  0.75112173    -0.01220
Br2156     Br  0.82618339  0.82684883  0.79271451    -0.01300
Br2157     Br  0.81767260  0.81210631  0.65464979    -0.01260
Br2158     Br  0.77734926  0.77339255  0.69470920    -0.01240
C2159       C  0.79713681  0.69620624  0.81334027    -0.02360
C2160       C  0.80219536  0.72557209  0.81526438     0.07320
C2161       C  0.82491036  0.73403910  0.83258694    -0.02480
C2162       C  0.84034582  0.71433087  0.84861785    -0.02480
C2163       C  0.83446741  0.68562276  0.84689713     0.07450
C2164       C  0.81373107  0.67657271  0.82834649    -0.02680
Br2165     Br  0.80890977  0.63681445  0.82288026    -0.01220
Br2166     Br  0.76755617  0.68103320  0.79145879    -0.01300
Br2167     Br  0.86963928  0.72652367  0.87363437    -0.01260
Br2168     Br  0.83531292  0.77266114  0.83607533    -0.01240
C2169       C  0.70004807  0.80691567  0.81689390    -0.02360
C2170       C  0.72986272  0.80523373  0.82054245     0.07320
C2171       C  0.74136075  0.82215192  0.84218866    -0.02480
C2172       C  0.72382789  0.83871754  0.85997429    -0.02480
C2173       C  0.69457540  0.84017588  0.85581256     0.07450
C2174       C  0.68292777  0.82483781  0.83370291    -0.02680
Br2175     Br  0.64306274  0.82892213  0.82609173    -0.01220
Br2176     Br  0.68086113  0.78488617  0.78991613    -0.01300
Br2177     Br  0.73985424  0.86069095  0.88969857    -0.01260
Br2178     Br  0.78135324  0.82547549  0.84699114    -0.01240
C2179       C  0.68223542  0.92653181  0.61907532    -0.02360
C2180       C  0.69463597  0.92436011  0.64590285     0.07320
C2181       C  0.71441827  0.94466138  0.65380925    -0.02480
C2182       C  0.72088515  0.96714343  0.63580770    -0.02480
C2183       C  0.71112220  0.96766978  0.60784885     0.07450
C2184       C  0.69077050  0.94791182  0.60001373    -0.02680
Br2185     Br  0.67206422  0.95284102  0.56469560    -0.01220
Br2186     Br  0.65402405  0.89986675  0.60834182    -0.01300
Br2187     Br  0.73895903  0.99890764  0.65231459    -0.01260
Br2188     Br  0.73261558  0.94271739  0.68983113    -0.01240
C2189       C  0.59536138  0.91652342  0.71634771    -0.02360
C2190       C  0.62451207  0.92071178  0.72028479     0.07320
C2191       C  0.63347489  0.94368104  0.73599512    -0.02480
C2192       C  0.61373319  0.96137062  0.74909631    -0.02480
C2193       C  0.58438364  0.95783651  0.74514113     0.07450
C2194       C  0.57532674  0.93526478  0.72848184    -0.02680
Br2195     Br  0.53572759  0.93085170  0.72121828    -0.01220
Br2196     Br  0.58321931  0.88550226  0.69393846    -0.01300
Br2197     Br  0.62857527  0.98902614  0.77348736    -0.01260
Br2198     Br  0.67326389  0.95223310  0.73832460    -0.01240
C2199       C  0.70627727  0.82685176  0.72154791    -0.02360
C2200       C  0.70770809  0.85585543  0.72576774     0.07320
C2201       C  0.72590250  0.86606040  0.74647395    -0.02480
C2202       C  0.74295322  0.84755289  0.76240065    -0.02480
C2203       C  0.74189689  0.81810558  0.75832603     0.07450
C2204       C  0.72294172  0.80819132  0.73764380    -0.02680
Br2205     Br  0.71718177  0.76895119  0.73190446    -0.01220
Br2206     Br  0.68031245  0.81277873  0.69404511    -0.01300
Br2207     Br  0.76711336  0.86398451  0.78951242    -0.01260
Br2208     Br  0.72728392  0.90568152  0.75361960    -0.01240
C2209       C  0.91533874  0.61490096  0.75489915    -0.02360
C2210       C  0.91468288  0.61696363  0.72531443     0.07320
C2211       C  0.92745152  0.59514675  0.70935021    -0.02480
C2212       C  0.94569474  0.57559946  0.72231271    -0.02480
C2213       C  0.94710183  0.57459935  0.75176306     0.07450
C2214       C  0.92813647  0.59160581  0.76751671    -0.02680
Br2215     Br  0.91594896  0.58204808  0.80513484    -0.01220
Br2216     Br  0.90243174  0.64463925  0.77939000    -0.01300
Br2217     Br  0.96656178  0.54865967  0.70004319    -0.01260
Br2218     Br  0.91790973  0.59013181  0.67061925    -0.01240
C2219       C  0.94424392  0.74032115  0.63741288    -0.02360
C2220       C  0.96283955  0.72662051  0.61861180     0.07320
C2221       C  0.96194251  0.69708055  0.61732338    -0.02480
C2222       C  0.94244967  0.68224017  0.63453169    -0.02480
C2223       C  0.92756882  0.69614363  0.65663306     0.07450
C2224       C  0.93031847  0.72552124  0.65864745    -0.02680
Br2225     Br  0.91748538  0.74702110  0.69069741    -0.01220
Br2226     Br  0.93060638  0.77744308  0.63016282    -0.01300
Br2227     Br  0.93442048  0.64398458  0.62518396    -0.01260
Br2228     Br  0.98686768  0.67669456  0.59216736    -0.01240
C2229       C  0.81997496  0.69968324  0.72225310    -0.02360
C2230       C  0.84926808  0.69945076  0.72601286     0.07320
C2231       C  0.86116344  0.71886292  0.74449818    -0.02480
C2232       C  0.84437277  0.74004510  0.75698747    -0.02480
C2233       C  0.81445308  0.73968776  0.75498216     0.07450
C2234       C  0.80259899  0.71887457  0.73727729    -0.02680
Br2235     Br  0.76260522  0.71594080  0.73226817    -0.01220
Br2236     Br  0.80389357  0.67301791  0.69676458    -0.01300
Br2237     Br  0.86422900  0.77060767  0.77308423    -0.01260
Br2238     Br  0.90070156  0.71562500  0.75394815    -0.01240
C2239       C  0.60688428  0.70331273  0.94800506    -0.02360
C2240       C  0.63526599  0.71130555  0.94974468     0.07320
C2241       C  0.64441573  0.72728650  0.97250561    -0.02480
C2242       C  0.62541092  0.73499682  0.99389275    -0.02480
C2243       C  0.59629854  0.72824611  0.99179319     0.07450
C2244       C  0.58721367  0.71203695  0.96863394    -0.02680
Br2245     Br  0.54810547  0.70229577  0.96331628    -0.01220
Br2246     Br  0.59534667  0.68012278  0.91710933    -0.01300
Br2247     Br  0.64071154  0.75339825  0.02662175    -0.01260
Br2248     Br  0.68361279  0.73768215  0.97513551    -0.01240
C2249       C  0.72830766  0.64545819  0.96468038    -0.02360
C2250       C  0.70568745  0.63818503  0.94753301     0.07320
C2251       C  0.69272053  0.61193332  0.95106222    -0.02480
C2252       C  0.70178658  0.59321673  0.97225656    -0.02480
C2253       C  0.72561980  0.59985387  0.98896693     0.07450
C2254       C  0.73934941  0.62615779  0.98399461    -0.02680
Br2255     Br  0.77394380  0.63777200  0.00202467    -0.01220
Br2256     Br  0.74277162  0.68323086  0.96390336    -0.01300
Br2257     Br  0.68025849  0.55920389  0.97765827    -0.01260
Br2258     Br  0.66192027  0.60213125  0.92679584    -0.01240
C2259       C  0.73216243  0.73381791  0.88439390    -0.02360
C2260       C  0.71093835  0.71546517  0.87590550     0.07320
C2261       C  0.70568480  0.71232609  0.84721587    -0.02480
C2262       C  0.72165930  0.72754597  0.82708070    -0.02480
C2263       C  0.74427484  0.74512827  0.83531805     0.07450
C2264       C  0.74973418  0.74717315  0.86447405    -0.02680
Br2265     Br  0.78185552  0.76569892  0.87918268    -0.01220
Br2266     Br  0.73650326  0.74196462  0.92364634    -0.01300
Br2267     Br  0.71226442  0.72295662  0.78827968    -0.01260
Br2268     Br  0.67606488  0.68732877  0.83580989    -0.01240
loop_ 
_geom_bond_atom_site_label_1 
_geom_bond_atom_site_label_2 
_geom_bond_distance 
_geom_bond_site_symmetry_2 
_ccdc_geom_bond_type 
C1            C2   1.405       .  A
C1            C6   1.410       .  A
C1         C2260   1.482       .  S
C2            C3   1.402       .  A
C2            H7   1.084       .  S
C3            C4   1.391       .  A
C3         C2240   1.465       .  S
C4            C5   1.390       .  A
C4            H8   1.086       .  S
C5            C6   1.408       .  A
C5         C2250   1.478       .  S
C6            H9   1.084       .  S
C10          C11   1.401       .  A
C10          C15   1.402       .  A
C10        C2230   1.491       .  S
C11          C12   1.409       .  A
C11          H16   1.083       .  S
C12          C13   1.404       .  A
C12        C2223   1.498       .  S
C13          C14   1.407       .  A
C13          H17   1.083       .  S
C14          C15   1.412       .  A
C14        C2210   1.494       .  S
C15          H18   1.082       .  S
C19          C20   1.408       .  A
C19          C24   1.412       .  A
C19        C2200   1.496       .  S
C20          C21   1.409       .  A
C20          H25   1.084       .  S
C21          C22   1.398       .  A
C21        C2190   1.481       .  S
C22          C23   1.400       .  A
C22          H26   1.085       .  S
C23          C24   1.413       .  A
C23        C2180   1.490       .  S
C24          H27   1.084       .  S
C28          C29   1.444       .  A
C28          C33   1.442       .  A
C28        C2170   1.538       .  S
C29          C30   1.442       .  A
C29        C2263   1.516       .  S
C30          C31   1.438       .  A
C30        C2160   1.531       .  S
C31          C32   1.442       .  A
C31        C2233   1.529       .  S
C32          C33   1.443       .  A
C32        C2150   1.523       .  S
C33        C2203   1.528       .  S
C34          C35   1.409       .  A
C34          C39   1.396       .  A
C34        C2130   1.485       .  S
C35          C36   1.412       .  A
C35          H40   1.084       .  S
C36          C37   1.406       .  A
C36        C2140   1.490       .  S
C37          C38   1.406       .  A
C37          H41   1.084       .  S
C38          C39   1.396       .  A
C38        C2120   1.476       .  S
C39          H42   1.085       .  S
C43          C44   1.403       .  A
C43          C48   1.387       .  A
C43        C2100   1.470       .  S
C44          C45   1.409       .  A
C44          H49   1.084       .  S
C45          C46   1.412       .  A
C45        C2110   1.491       .  S
C46          C47   1.410       .  A
C46          H50   1.083       .  S
C47          C48   1.394       .  A
C47        C2090   1.488       .  S
C48          H51   1.086       .  S
C52          C53   1.408       .  A
C52          C57   1.398       .  A
C52        C2070   1.485       .  S
C53          C54   1.407       .  A
C53          H58   1.084       .  S
C54          C55   1.411       .  A
C54        C2080   1.494       .  S
C55          C56   1.411       .  A
C55          H59   1.083       .  S
C56          C57   1.402       .  A
C56        C2060   1.495       .  S
C57          H60   1.085       .  S
C61          C62   1.412       .  A
C61          C66   1.410       .  A
C61        C2030   1.494       .  S
C62          C63   1.409       .  A
C62          H67   1.084       .  S
C63          C64   1.401       .  A
C63        C2050   1.493       .  S
C64          C65   1.405       .  A
C64          H68   1.085       .  S
C65          C66   1.409       .  A
C65        C2040   1.491       .  S
C66          H69   1.084       .  S
C70          C71   1.407       .  A
C70          C75   1.397       .  A
C70        C2023   1.480       .  S
C71          C72   1.404       .  A
C71          H76   1.084       .  S
C72          C73   1.406       .  A
C72        C2153   1.486       .  S
C73          C74   1.406       .  A
C73          H77   1.084       .  S
C74          C75   1.397       .  A
C74        C2010   1.477       .  S
C75          H78   1.085       .  S
C79          C80   1.403       .  A
C79          C84   1.404       .  A
C79        C1980   1.486       .  S
C80          C81   1.409       .  A
C80          H85   1.084       .  S
C81          C82   1.405       .  A
C81        C2000   1.493       .  S
C82          C83   1.404       .  A
C82          H86   1.081       .  S
C83          C84   1.408       .  A
C83        C1990   1.499       .  S
C84          H87   1.084       .  S
C88          C89   1.414       .  A
C88          C93   1.395       .  A
C88        C1960   1.495       .  S
C89          C90   1.409       .  A
C89          H94   1.081       .  S
C90          C91   1.407       .  A
C90        C2163   1.489       .  S
C91          C92   1.404       .  A
C91          H95   1.084       .  S
C92          C93   1.393       .  A
C92        C1970   1.477       .  S
C93          H96   1.084       .  S
C97          C98   1.398       .  A
C97         C102   1.410       .  A
C97        C1940   1.488       .  S
C98          C99   1.396       .  A
C98         H103   1.085       .  S
C99         C100   1.410       .  A
C99        C1950   1.484       .  S
C100        C101   1.411       .  A
C100        H104   1.084       .  S
C101        C102   1.408       .  A
C101       C1930   1.493       .  S
C102        H105   1.084       .  S
C106        C107   1.396       .  A
C106        C111   1.412       .  A
C106       C1920   1.494       .  S
C107        C108   1.391       .  A
C107        H112   1.083       .  S
C108        C109   1.396       .  A
C108       C1910   1.464       .  S
C109        C110   1.402       .  A
C109        H113   1.084       .  S
C110        C111   1.406       .  A
C110       C1900   1.479       .  S
C111        H114   1.080       .  S
O115        C123   1.274       .  A
O115       Co135   2.027   1_655  S
O116        C124   1.265       .  A
O116       Co136   2.031       .  S
O117        C125   1.268       .  A
O117       Co137   1.877       .  S
O118        C126   1.272       .  A
O118       Co138   1.989       .  S
O119        C125   1.297       .  A
O119       Co136   2.108   1_655  S
O120        C126   1.273       .  A
O120       Co135   2.014       .  S
O121        C124   1.253       .  A
O121       Co138   1.965       .  S
O122        C123   1.262       .  A
O122       Co137   1.965       .  S
C123       C2220   1.488       .  S
C124       C1880   1.497       .  S
C125       C1893   1.496       .  S
C126       C1870   1.497       .  S
O127        C140   1.260       .  A
O127       Co135   1.970       .  S
O128        C141   1.264       .  A
O128       Co136   1.916   1_655  S
O129        C142   1.276       .  A
O129       Co137   2.028       .  S
O130        C143   1.290       .  A
O130       Co138   2.052       .  S
O131        C143   1.270       .  A
O131       Co136   1.965       .  S
O132        C142   1.255       .  A
O132       Co135   1.960   1_655  S
O133        C140   1.257       .  A
O133       Co138   1.976       .  S
O134        C141   1.294       .  A
O134       Co137   2.118       .  S
Co135       O139   2.033       .  S
Co136       O139   2.019       .  S
Co137       O139   2.005   1_655  S
Co138       O139   2.021       .  S
C140       C1913   1.490       .  S
C141       C2053   1.507       .  S
C142       C2020   1.476       .  S
C143       C1943   1.490       .  S
C144        C145   1.395       .  A
C144        C149   1.400       .  A
C144       C1840   1.486       .  S
C145        C146   1.403       .  A
C145        H150   1.072       .  S
C146        C147   1.426       .  A
C146       C1850   1.526       .  S
C147        C148   1.416       .  A
C147        H151   1.078       .  S
C148        C149   1.404       .  A
C148       C1863   1.496       .  S
C149        H152   1.084       .  S
C153        C154   1.424       .  A
C153        C158   1.398       .  A
C153       C1820   1.515       .  S
C154        C155   1.416       .  A
C154        H159   1.082       .  S
C155        C156   1.409       .  A
C155       C1830   1.502       .  S
C156        C157   1.406       .  A
C156        H160   1.082       .  S
C157        C158   1.398       .  A
C157       C1810   1.483       .  S
C158        H161   1.079       .  S
C162        C163   1.446       .  A
C162        C167   1.445       .  A
C162       C1903   1.519       .  S
C163        C164   1.449       .  A
C163       C1833   1.543       .  S
C164        C165   1.449       .  A
C164       C1800   1.527       .  S
C165        C166   1.444       .  A
C165       C1860   1.535       .  S
C166        C167   1.440       .  A
C166       C1780   1.526       .  S
C167       C1790   1.540       .  S
C168        C169   1.411       .  A
C168        C173   1.414       .  A
C168       C1793   1.504       .  S
C169        C170   1.406       .  A
C169        H174   1.083       .  S
C170        C171   1.395       .  A
C170       C1873   1.485       .  S
C171        C172   1.405       .  A
C171        H175   1.083       .  S
C172        C173   1.419       .  A
C172       C1770   1.510       .  S
C173        H176   1.080       .  S
O177        C185   1.266       .  A
O177       Co197   1.986       .  S
O178        C186   1.285       .  A
O178       Co198   2.089       .  S
O179        C187   1.270       .  A
O179       Co199   1.993       .  S
O180        C188   1.277   1_455  A
O180       Co200   1.990       .  S
O181        C187   1.274       .  A
O181       Co198   2.023       .  S
O182        C188   1.280       .  A
O182       Co197   2.027       .  S
O183        C186   1.272       .  A
O183       Co200   1.905       .  S
O184        C185   1.274       .  A
O184       Co199   1.994   1_655  S
C185       C2213   1.486       .  S
C186       C1740   1.480       .  S
C187       C1773   1.504       .  S
C188       C1733   1.505       .  S
O189        C202   1.268       .  A
O189       Co197   1.990       .  S
O190        C203   1.273       .  A
O190       Co198   1.985       .  S
O191        C204   1.268       .  A
O191       Co199   2.000   1_655  S
O192        C205   1.284       .  A
O192       Co200   2.099       .  S
O193        C205   1.266       .  A
O193       Co198   1.870       .  S
O194        C204   1.270       .  A
O194       Co197   1.981       .  S
O195        C202   1.269   1_455  A
O195       Co200   2.009       .  S
O196        C203   1.279       .  A
O196       Co199   2.034       .  S
Co197       O201   2.014   1_655  S
Co198       O201   1.984       .  S
Co199       O201   2.034       .  S
Co200       O201   1.997       .  S
C202       C1993   1.492       .  S
C203       C1753   1.498       .  S
C204       C1963   1.501       .  S
C205       C1760   1.482       .  S
C206        C207   1.396       .  A
C206        C211   1.417       .  A
C206       C1763   1.503       .  S
C207        C208   1.393       .  A
C207        H212   1.083       .  S
C208        C209   1.411       .  A
C208       C1720   1.488       .  S
C209        C210   1.415       .  A
C209        H213   1.083       .  S
C210        C211   1.415       .  A
C210       C1713   1.504       .  S
C211        H214   1.082       .  S
C215        C216   1.409       .  A
C215        C220   1.394       .  A
C215       C1700   1.495       .  S
C216        C217   1.408       .  A
C216        H221   1.083       .  S
C217        C218   1.406       .  A
C217       C1783   1.485       .  S
C218        C219   1.402       .  A
C218        H222   1.083       .  S
C219        C220   1.395       .  A
C219       C1750   1.472       .  S
C220        H223   1.084       .  S
C224        C225   1.408       .  A
C224        C229   1.409       .  A
C224       C1803   1.485       .  S
C225        C226   1.404       .  A
C225        H230   1.084       .  S
C226        C227   1.398       .  A
C226       C1690   1.478       .  S
C227        C228   1.395       .  A
C227        H231   1.086       .  S
C228        C229   1.406       .  A
C228       C1680   1.479       .  S
C229        H232   1.084       .  S
C233        C234   1.408       .  A
C233        C238   1.398       .  A
C233       C1673   1.484       .  S
C234        C235   1.410       .  A
C234        H239   1.084       .  S
C235        C236   1.412       .  A
C235       C2173   1.498       .  S
C236        C237   1.413       .  A
C236        H240   1.083       .  S
C237        C238   1.400       .  A
C237       C1660   1.499       .  S
C238        H241   1.085       .  S
C242        C243   1.395       .  A
C242        C247   1.405       .  A
C242       C1653   1.475       .  S
C243        C244   1.394       .  A
C243        H248   1.084       .  S
C244        C245   1.413       .  A
C244       C1883   1.494       .  S
C245        C246   1.408       .  A
C245        H249   1.083       .  S
C246        C247   1.409       .  A
C246       C1640   1.493       .  S
C247        H250   1.084       .  S
C251        C252   1.442       .  A
C251        C256   1.444       .  A
C251       C1933   1.527       .  S
C252        C253   1.442       .  A
C252       C2083   1.530       .  S
C253        C254   1.442       .  A
C253       C1633   1.520       .  S
C254        C255   1.443       .  A
C254       C1623   1.531       .  S
C255        C256   1.442       .  A
C255       C1610   1.526       .  S
C256       C1643   1.528       .  S
C257        C258   1.394       .  A
C257        C262   1.407       .  A
C257       C1603   1.475       .  S
C258        C259   1.394       .  A
C258        H263   1.084       .  S
C259        C260   1.411       .  A
C259       C1593   1.493       .  S
C260        C261   1.408       .  A
C260        H264   1.083       .  S
C261        C262   1.408       .  A
C261       C1620   1.491       .  S
C262        H265   1.083       .  S
O266        C274   1.296       .  A
O266       Co286   2.103       .  S
O267        C275   1.278       .  A
O267       Co287   2.038       .  S
O268        C276   1.273       .  A
O268       Co288   1.990       .  S
O269        C277   1.249   1_554  A
O269       Co289   1.959       .  S
O270        C276   1.272       .  A
O270       Co287   2.014       .  S
O271        C277   1.264       .  A
O271       Co286   2.035   1_556  S
O272        C275   1.265       .  A
O272       Co289   1.958       .  S
O273        C274   1.269       .  A
O273       Co288   1.891       .  S
C274       C1723   1.500   1_554  S
C275       C1563   1.512       .  S
C276       C1570   1.491       .  S
C277       C1703   1.493       .  S
O278        C291   1.263       .  A
O278       Co286   1.960       .  S
O279        C292   1.259       .  A
O279       Co287   1.969       .  S
O280        C293   1.295   1_554  A
O280       Co288   2.121       .  S
O281        C294   1.260       .  A
O281       Co289   1.985       .  S
O282        C294   1.260       .  A
O282       Co287   1.977       .  S
O283        C293   1.262       .  A
O283       Co286   1.906   1_556  S
O284        C291   1.284       .  A
O284       Co289   2.046       .  S
O285        C292   1.272       .  A
O285       Co288   2.019       .  S
Co286       O290   2.031       .  S
Co287       O290   2.036       .  S
Co288       O290   2.020       .  S
Co289       O290   2.036       .  S
C291       C1853   1.483   1_554  S
C292       C1580   1.493       .  S
C293       C2133   1.494       .  S
C294       C1600   1.488       .  S
O295        C303   1.297       .  A
O295       Co315   2.059       .  S
O296        C304   1.264       .  A
O296       Co316   1.995       .  S
O297        C305   1.260       .  A
O297       Co317   2.006       .  S
O298        C306   1.273       .  A
O298       Co318   1.920   1_655  S
O299        C305   1.266       .  A
O299       Co316   2.038       .  S
O300        C306   1.289       .  A
O300       Co315   2.040       .  S
O301        C304   1.269       .  A
O301       Co318   1.996       .  S
O302        C303   1.279   1_455  A
O302       Co317   1.896       .  S
C303       C2103   1.482       .  S
C304       C1650   1.489       .  S
C305       C1520   1.503       .  S
C306       C1550   1.475       .  S
O307        C320   1.254       .  A
O307       Co315   1.998       .  S
O308        C321   1.253       .  A
O308       Co316   1.961       .  S
O309        C322   1.243       .  A
O309       Co317   1.975   1_655  S
O310        C323   1.265       .  A
O310       Co318   2.014       .  S
O311        C323   1.260       .  A
O311       Co316   1.980       .  S
O312        C322   1.247       .  A
O312       Co315   1.979       .  S
O313        C320   1.240       .  A
O313       Co318   1.953   1_655  S
O314        C321   1.264       .  A
O314       Co317   1.990       .  S
Co315       O319   2.247   1_655  S
Co316       O319   2.061       .  S
Co317       O319   1.925       .  S
Co318       O319   1.936       .  S
C320       C1503   1.486       .  S
C321       C1533   1.469       .  S
C322       C1510   1.487       .  S
C323       C1540   1.497       .  S
C324        C325   1.395       .  A
C324        C329   1.407       .  A
C324       C1573   1.479       .  S
C325        C326   1.397       .  A
C325        H330   1.085       .  S
C326        C327   1.395       .  A
C326       C1530   1.462       .  S
C327        C328   1.401       .  A
C327        H331   1.085       .  S
C328        C329   1.409       .  A
C328       C1490   1.478       .  S
C329        H332   1.084       .  S
C333        C334   1.410       .  A
C333        C338   1.407       .  A
C333       C1480   1.497       .  S
C334        C335   1.406       .  A
C334        H339   1.083       .  S
C335        C336   1.405       .  A
C335       C1513   1.492       .  S
C336        C337   1.400       .  A
C336        H340   1.083       .  S
C337        C338   1.397       .  A
C337       C1473   1.482       .  S
C338        H341   1.081       .  S
C342        C343   1.390       .  A
C342        C347   1.400       .  A
C342       C1500   1.466       .  S
C343        C344   1.395       .  A
C343        H348   1.085       .  S
C344        C345   1.408       .  A
C344       C1463   1.484       .  S
C345        C346   1.410       .  A
C345        H349   1.083       .  S
C346        C347   1.403       .  A
C346       C1450   1.481       .  S
C347        H350   1.084       .  S
O351        C359   1.267       .  A
O351       Co371   1.998   1_556  S
O352        C360   1.300       .  A
O352       Co372   2.124       .  S
O353        C361   1.260       .  A
O353       Co373   1.979       .  S
O354        C362   1.271       .  A
O354       Co374   1.986       .  S
O355        C361   1.251       .  A
O355       Co372   1.968       .  S
O356        C362   1.278   1_556  A
O356       Co371   2.031   1_556  S
O357        C360   1.258       .  A
O357       Co374   1.870       .  S
O358        C359   1.265   1_554  A
O358       Co373   1.973       .  S
C359       C1973   1.491       .  S
C360       C1483   1.464       .  S
C361       C1460   1.500       .  S
C362       C2003   1.485   1_554  S
O363        C376   1.256       .  A
O363       Co371   1.975       .  S
O364        C377   1.270       .  A
O364       Co372   1.990       .  S
O365        C378   1.265       .  A
O365       Co373   1.996       .  S
O366        C379   1.304       .  A
O366       Co374   2.139       .  S
O367        C379   1.254       .  A
O367       Co372   1.861       .  S
O368        C378   1.264       .  A
O368       Co371   1.971       .  S
O369        C376   1.254       .  A
O369       Co374   1.975       .  S
O370        C377   1.276       .  A
O370       Co373   2.013       .  S
Co371       O375   2.042       .  S
Co372       O375   1.994       .  S
Co373       O375   2.042       .  S
Co374       O375   2.011       .  S
C376       C1440   1.471   1_554  S
C377       C1423   1.496       .  S
C378       C2253   1.504   1_554  S
C379       C1430   1.484       .  S
C380        C381   1.401       .  A
C380        C385   1.401       .  A
C380       C1390   1.472       .  S
C381        C382   1.397       .  A
C381        H386   1.085       .  S
C382        C383   1.402       .  A
C382       C1400   1.478       .  S
C383        C384   1.407       .  A
C383        H387   1.084       .  S
C384        C385   1.405       .  A
C384       C1410   1.479       .  S
C385        H388   1.084       .  S
C389        C390   1.407       .  A
C389        C394   1.397       .  A
C389       C1890   1.480       .  S
C390        C391   1.409       .  A
C390        H395   1.084       .  S
C391        C392   1.406       .  A
C391       C1383   1.489       .  S
C392        C393   1.411       .  A
C392        H396   1.083       .  S
C393        C394   1.398       .  A
C393       C1553   1.493       .  S
C394        H397   1.084       .  S
C398        C399   1.435       .  A
C398        C403   1.448       .  A
C398       C1380   1.528       .  S
C399        C400   1.435       .  A
C399       C2033   1.529       .  S
C400        C401   1.438       .  A
C400       C1413   1.512       .  S
C401        C402   1.444       .  A
C401       C1363   1.525       .  S
C402        C403   1.448       .  A
C402       C1370   1.537       .  S
C403       C1453   1.518       .  S
C404        C405   1.411       .  A
C404        C409   1.413       .  A
C404       C1373   1.498       .  S
C405        C406   1.408       .  A
C405        H410   1.084       .  S
C406        C407   1.396       .  A
C406       C1420   1.481       .  S
C407        C408   1.398       .  A
C407        H411   1.085       .  S
C408        C409   1.415       .  A
C408       C1350   1.497       .  S
C409        H412   1.083       .  S
O413        C421   1.268   1_554  A
O413       Co433   1.979       .  S
O414        C422   1.256       .  A
O414       Co434   1.871       .  S
O415        C423   1.276   1_556  A
O415       Co435   2.013   1_556  S
O416        C424   1.259       .  A
O416       Co436   1.999       .  S
O417        C423   1.270       .  A
O417       Co434   1.984       .  S
O418        C424   1.256       .  A
O418       Co433   1.973       .  S
O419        C422   1.303       .  A
O419       Co436   2.119       .  S
O420        C421   1.268       .  A
O420       Co435   2.010   1_556  S
C421       C1663   1.516       .  S
C422       C1340   1.487       .  S
C423       C1683   1.490   1_554  S
C424       C1333   1.488       .  S
O425        C438   1.279       .  A
O425       Co433   2.040       .  S
O426        C439   1.255       .  A
O426       Co434   1.982       .  S
O427        C440   1.263       .  A
O427       Co435   1.969       .  S
O428        C441   1.256       .  A
O428       Co436   1.865       .  S
O429        C441   1.302       .  A
O429       Co434   2.127       .  S
O430        C440   1.265       .  A
O430       Co433   1.988       .  S
O431        C438   1.269       .  A
O431       Co436   1.982       .  S
O432        C439   1.260       .  A
O432       Co435   1.979       .  S
Co433       O437   2.041       .  S
Co434       O437   2.002       .  S
Co435       O437   2.034       .  S
Co436       O437   2.009       .  S
C438       C1353   1.489       .  S
C439       C1843   1.502   1_554  S
C440       C2243   1.486   1_554  S
C441       C1590   1.489       .  S
C442        C443   1.395       .  A
C442        C447   1.401       .  A
C442       C1343   1.471       .  S
C443        C444   1.402       .  A
C443        H448   1.084       .  S
C444        C445   1.408       .  A
C444       C1630   1.480       .  S
C445        C446   1.412       .  A
C445        H449   1.084       .  S
C446        C447   1.396       .  A
C446       C1320   1.491       .  S
C447        H450   1.083       .  S
C451        C452   1.416       .  A
C451        C456   1.400       .  A
C451       C1310   1.501       .  S
C452        C453   1.411       .  A
C452        H457   1.083       .  S
C453        C454   1.399       .  A
C453       C1360   1.485       .  S
C454        C455   1.397       .  A
C454        H458   1.084       .  S
C455        C456   1.396       .  A
C455       C1330   1.469       .  S
C456        H459   1.082       .  S
C460        C461   1.395       .  A
C460        C465   1.394       .  A
C460       C1303   1.472       .  S
C461        C462   1.406       .  A
C461        H466   1.065       .  S
C462        C463   1.424       .  A
C462       C1433   1.523       .  S
C463        C464   1.410       .  A
C463        H467   1.078       .  S
C464        C465   1.399       .  A
C464       C1290   1.490       .  S
C465        H468   1.084       .  S
C469        C470   1.437       .  A
C469        C474   1.443       .  A
C469       C1280   1.528       .  S
C470        C471   1.439       .  A
C470       C2113   1.530       .  S
C471        C472   1.439       .  A
C471       C1470   1.516       .  S
C472        C473   1.440       .  A
C472       C1293   1.527       .  S
C473        C474   1.445       .  A
C473       C1260   1.532       .  S
C474       C1270   1.522       .  S
C475        C476   1.400       .  A
C475        C480   1.406       .  A
C475       C1253   1.485       .  S
C476        C477   1.399       .  A
C476        H481   1.085       .  S
C477        C478   1.407       .  A
C477       C1243   1.478       .  S
C478        C479   1.408       .  A
C478        H482   1.084       .  S
C479        C480   1.406       .  A
C479       C1273   1.490       .  S
C480        H483   1.084       .  S
O484        C492   1.270       .  A
O484       Co504   2.002       .  S
O485        C493   1.242       .  A
O485       Co505   1.963       .  S
O486        C494   1.248       .  A
O486       Co506   1.945       .  S
O487        C495   1.243       .  A
O487       Co507   1.978   1_565  S
O488        C494   1.268       .  A
O488       Co505   2.029       .  S
O489        C495   1.251       .  A
O489       Co504   1.987       .  S
O490        C493   1.258       .  A
O490       Co507   2.019       .  S
O491        C492   1.263       .  A
O491       Co506   1.962   1_565  S
C492       C1323   1.467       .  S
C493       C1210   1.494       .  S
C494       C1220   1.471       .  S
C495       C1313   1.499       .  S
O496        C509   1.277       .  A
O496       Co504   1.908       .  S
O497        C510   1.258       .  A
O497       Co505   1.977       .  S
O498        C511   1.253       .  A
O498       Co506   1.971   1_565  S
O499        C512   1.294       .  A
O499       Co507   2.066       .  S
O500        C512   1.268       .  A
O500       Co505   1.912       .  S
O501        C511   1.274       .  A
O501       Co504   2.018       .  S
O502        C509   1.297       .  A
O502       Co507   2.068   1_565  S
O503        C510   1.275       .  A
O503       Co506   2.030       .  S
Co504       O508   1.954   1_565  S
Co505       O508   1.956       .  S
Co506       O508   2.059       .  S
Co507       O508   2.241       .  S
C509       C1403   1.483       .  S
C510       C1230   1.488       .  S
C511       C2073   1.499       .  S
C512       C1250   1.484       .  S
O513        C521   1.264       .  A
O513       Co533   1.972       .  S
O514        C522   1.266       .  A
O514       Co534   1.890       .  S
O515        C523   1.265       .  A
O515       Co535   1.983       .  S
O516        C524   1.257       .  A
O516       Co536   1.979       .  S
O517        C523   1.280       .  A
O517       Co534   2.003       .  S
O518        C524   1.262       .  A
O518       Co533   1.973       .  S
O519        C522   1.297       .  A
O519       Co536   2.121       .  S
O520        C521   1.273       .  A
O520       Co535   2.015       .  S
C521       C2123   1.484   1_554  S
C522       C1300   1.497       .  S
C523       C1173   1.513       .  S
C524       C1203   1.501   1_554  S
O525        C538   1.273       .  A
O525       Co533   2.000   1_556  S
O526        C539   1.250       .  A
O526       Co534   1.945       .  S
O527        C540   1.265   1_554  A
O527       Co535   1.968       .  S
O528        C541   1.262       .  A
O528       Co536   1.903       .  S
O529        C541   1.296       .  A
O529       Co534   2.127       .  S
O530        C540   1.270       .  A
O530       Co533   2.019   1_556  S
O531        C538   1.274   1_554  A
O531       Co536   1.990       .  S
O532        C539   1.266       .  A
O532       Co535   1.987       .  S
Co533       O537   2.029       .  S
Co534       O537   2.006       .  S
Co535       O537   2.032       .  S
Co536       O537   2.004       .  S
C538       C1150   1.500       .  S
C539       C1180   1.494       .  S
C540       C1160   1.508       .  S
C541       C1190   1.516       .  S
C542        C543   1.388       .  A
C542        C547   1.396       .  A
C542       C1183   1.463       .  S
C543        C544   1.397       .  A
C543        H548   1.084       .  S
C544        C545   1.407       .  A
C544       C1223   1.482       .  S
C545        C546   1.402       .  A
C545        H549   1.082       .  S
C546        C547   1.401       .  A
C546       C1143   1.472       .  S
C547        H550   1.084       .  S
C551        C552   1.414       .  A
C551        C556   1.422       .  A
C551       C1130   1.533       .  S
C552        C553   1.401       .  A
C552        H557   1.077       .  S
C553        C554   1.398       .  A
C553       C1163   1.490       .  S
C554        C555   1.400       .  A
C554        H558   1.084       .  S
C555        C556   1.414       .  A
C555       C1120   1.489       .  S
C556        H559   1.074       .  S
C560        C561   1.394       .  A
C560        C565   1.410       .  A
C560       C1153   1.485       .  S
C561        C562   1.395       .  A
C561        H566   1.086       .  S
C562        C563   1.409       .  A
C562       C1110   1.480       .  S
C563        C564   1.412       .  A
C563        H567   1.083       .  S
C564        C565   1.414       .  A
C564       C1100   1.496       .  S
C565        H568   1.084       .  S
O569        C577   1.263   1_545  A
O569       Co589   1.987       .  S
O570        C578   1.270       .  A
O570       Co590   1.982       .  S
O571        C579   1.288       .  A
O571       Co591   2.091       .  S
O572        C580   1.265       .  A
O572       Co592   2.027       .  S
O573        C579   1.265       .  A
O573       Co590   1.910   1_565  S
O574        C580   1.259       .  A
O574       Co589   1.976       .  S
O575        C578   1.281       .  A
O575       Co592   2.043       .  S
O576        C577   1.263       .  A
O576       Co591   2.010       .  S
C577       C2193   1.492       .  S
C578       C1090   1.495       .  S
C579       C1823   1.486       .  S
C580       C1083   1.495       .  S
O581        C594   1.275       .  A
O581       Co589   2.041       .  S
O582        C595   1.291       .  A
O582       Co590   2.089   1_565  S
O583        C596   1.274       .  A
O583       Co591   1.994       .  S
O584        C597   1.248       .  A
O584       Co592   1.960       .  S
O585        C597   1.263       .  A
O585       Co590   2.042       .  S
O586        C596   1.269   1_545  A
O586       Co589   2.024       .  S
O587        C594   1.258       .  A
O587       Co592   1.967       .  S
O588        C595   1.266       .  A
O588       Co591   1.902       .  S
Co589       O593   2.054       .  S
Co590       O593   2.047       .  S
Co591       O593   2.034   1_565  S
Co592       O593   2.052       .  S
C594       C1113   1.484       .  S
C595       C1693   1.501       .  S
C596       C1670   1.512       .  S
C597       C1133   1.509       .  S
C598        C599   1.401       .  A
C598        C603   1.391       .  A
C598       C1443   1.473       .  S
C599        C600   1.405       .  A
C599        H604   1.084       .  S
C600        C601   1.411       .  A
C600       C1070   1.482       .  S
C601        C602   1.408       .  A
C601        H605   1.083       .  S
C602        C603   1.396       .  A
C602       C1200   1.488       .  S
C603        H606   1.085       .  S
C607        C608   1.421       .  A
C607        C612   1.403       .  A
C607       C1730   1.503       .  S
C608        C609   1.419       .  A
C608        H613   1.082       .  S
C609        C610   1.410       .  A
C609       C1063   1.506       .  S
C610        C611   1.400       .  A
C610        H614   1.083       .  S
C611        C612   1.395       .  A
C611       C1050   1.484       .  S
C612        H615   1.085       .  S
C616        C617   1.447       .  A
C616        C621   1.447       .  A
C616       C1983   1.512       .  S
C617        C618   1.434       .  A
C617       C1073   1.522       .  S
C618        C619   1.428       .  A
C618       C1103   1.524       .  S
C619        C620   1.436       .  A
C619       C1040   1.525       .  S
C620        C621   1.447       .  A
C620       C1030   1.501       .  S
C621       C1060   1.553       .  S
C622        C623   1.403       .  A
C622        C627   1.413       .  A
C622       C1043   1.491       .  S
C623        C624   1.399       .  A
C623        H628   1.084       .  S
C624        C625   1.405       .  A
C624       C1080   1.478       .  S
C625        C626   1.405       .  A
C625        H629   1.082       .  S
C626        C627   1.418       .  A
C626       C1020   1.512       .  S
C627        H630   1.083       .  S
O631        C639   1.259   1_545  A
O631       Co651   2.025       .  S
O632        C640   1.271       .  A
O632       Co652   2.032       .  S
O633        C641   1.261       .  A
O633       Co653   1.975       .  S
O634        C642   1.267       .  A
O634       Co654   1.891       .  S
O635        C641   1.269       .  A
O635       Co652   2.031   1_565  S
O636        C642   1.289       .  A
O636       Co651   2.084       .  S
O637        C640   1.265       .  A
O637       Co654   1.981       .  S
O638        C639   1.249       .  A
O638       Co653   1.966       .  S
C639       C2013   1.488       .  S
C640       C1010   1.490       .  S
C641       C2043   1.499       .  S
C642       C1003   1.482       .  S
O643        C656   1.260       .  A
O643       Co651   1.902       .  S
O644        C657   1.265       .  A
O644       Co652   1.982   1_565  S
O645        C658   1.276       .  A
O645       Co653   2.041       .  S
O646        C659   1.262       .  A
O646       Co654   2.009       .  S
O647        C659   1.257       .  A
O647       Co652   1.974       .  S
O648        C658   1.265   1_545  A
O648       Co651   1.973       .  S
O649        C656   1.292       .  A
O649       Co654   2.105       .  S
O650        C657   1.263       .  A
O650       Co653   2.003       .  S
Co651       O655   2.041       .  S
Co652       O655   2.058       .  S
Co653       O655   2.035   1_565  S
Co654       O655   2.035       .  S
C656       C1023   1.494       .  S
C657       C1393   1.483       .  S
C658       C2183   1.491       .  S
C659       C1240   1.487       .  S
C660        C661   1.409       .  A
C660        C665   1.395       .  A
C660       C1013   1.483       .  S
C661        C662   1.411       .  A
C661        H666   1.084       .  S
C662        C663   1.409       .  A
C662       C1283   1.492       .  S
C663        C664   1.408       .  A
C663        H667   1.083       .  S
C664        C665   1.395       .  A
C664        C990   1.480       .  S
C665        H668   1.085       .  S
C669        C670   1.399       .  A
C669        C674   1.393       .  A
C669        C980   1.473       .  S
C670        C671   1.404       .  A
C670        H675   1.085       .  S
C671        C672   1.404       .  A
C671       C1033   1.482       .  S
C672        C673   1.407       .  A
C672        H676   1.084       .  S
C673        C674   1.395       .  A
C673       C1000   1.480       .  S
C674        H677   1.085       .  S
C678        C679   1.402       .  A
C678        C683   1.405       .  A
C678        C973   1.482       .  S
C679        C680   1.402       .  A
C679        H684   1.085       .  S
C680        C681   1.410       .  A
C680       C1093   1.489       .  S
C681        C682   1.412       .  A
C681        H685   1.084       .  S
C682        C683   1.407       .  A
C682        C963   1.495       .  S
C683        H686   1.084       .  S
C687        C688   1.439       .  A
C687        C692   1.432       .  A
C687       C2143   1.529       .  S
C688        C689   1.468       .  A
C688       C1710   1.535       .  S
C689        C690   1.460       .  A
C689        C950   1.557       .  S
C690        C691   1.462       .  A
C690        C940   1.570       .  S
C691        C692   1.439       .  A
C691        C960   1.525       .  S
C692       C1123   1.527       .  S
O693        C701   1.264       .  A
O693       Co713   2.021       .  S
O694        C702   1.277       .  A
O694       Co714   2.054       .  S
O695        C703   1.271       .  A
O695       Co715   1.980       .  S
O696        C704   1.269   1_545  A
O696       Co716   1.890       .  S
O697        C703   1.271       .  A
O697       Co714   2.006       .  S
O698        C704   1.293       .  A
O698       Co713   2.092       .  S
O699        C702   1.272       .  A
O699       Co716   1.982       .  S
O700        C701   1.261       .  A
O700       Co715   1.987   1_565  S
C701       C2063   1.495       .  S
C702        C970   1.499       .  S
C703        C933   1.492       .  S
C704       C1813   1.503       .  S
O705        C718   1.262       .  A
O705       Co713   1.913       .  S
O706        C719   1.256       .  A
O706       Co714   1.971       .  S
O707        C720   1.276       .  A
O707       Co715   2.024   1_565  S
O708        C721   1.258       .  A
O708       Co716   2.001       .  S
O709        C721   1.251       .  A
O709       Co714   1.965       .  S
O710        C720   1.269       .  A
O710       Co713   1.985       .  S
O711        C718   1.281       .  A
O711       Co716   2.080   1_565  S
O712        C719   1.262       .  A
O712       Co715   2.004       .  S
Co713       O717   2.034   1_565  S
Co714       O717   2.022       .  S
Co715       O717   2.054       .  S
Co716       O717   2.021       .  S
C718       C1923   1.472       .  S
C719        C910   1.493       .  S
C720       C1953   1.494       .  S
C721        C920   1.478       .  S
O722        C730   1.269       .  A
O722       Co742   1.998       .  S
O723        C731   1.287       .  A
O723       Co743   2.047       .  S
O724        C732   1.264       .  A
O724       Co744   1.974       .  S
O725        C733   1.258       .  A
O725       Co745   1.885   1_655  S
O726        C732   1.262       .  A
O726       Co743   1.987       .  S
O727        C733   1.294       .  A
O727       Co742   2.121       .  S
O728        C731   1.270       .  A
O728       Co745   1.973       .  S
O729        C730   1.271       .  A
O729       Co744   1.993   1_655  S
C730        C993   1.500       .  S
C731        C890   1.489       .  S
C732        C903   1.487       .  S
C733        C983   1.476       .  S
O734        C747   1.271       .  A
O734       Co742   1.889       .  S
O735        C748   1.268       .  A
O735       Co743   1.973       .  S
O736        C749   1.261       .  A
O736       Co744   1.973   1_655  S
O737        C750   1.259       .  A
O737       Co745   2.000       .  S
O738        C750   1.254       .  A
O738       Co743   1.971       .  S
O739        C749   1.271       .  A
O739       Co742   1.986       .  S
O740        C747   1.298       .  A
O740       Co745   2.121   1_655  S
O741        C748   1.276       .  A
O741       Co744   2.028       .  S
Co742       O746   2.003   1_655  S
Co743       O746   2.024       .  S
Co744       O746   2.028       .  S
Co745       O746   2.002       .  S
C747       C1053   1.508       .  S
C748        C883   1.510       .  S
C749       C2093   1.500       .  S
C750        C873   1.482       .  S
C751        C752   1.394       .  A
C751        C756   1.401       .  A
C751        C900   1.475       .  S
C752        C753   1.398       .  A
C752        H757   1.084       .  S
C753        C754   1.413       .  A
C753        C913   1.495       .  S
C754        C755   1.409       .  A
C754        H758   1.080       .  S
C755        C756   1.404       .  A
C755        C863   1.483       .  S
C756        H759   1.084       .  S
C760        C761   1.396       .  A
C760        C765   1.405       .  A
C760        C870   1.482       .  S
C761        C762   1.407       .  A
C761        H766   1.083       .  S
C762        C763   1.410       .  A
C762       C1743   1.502       .  S
C763        C764   1.407       .  A
C763        H767   1.075       .  S
C764        C765   1.396       .  A
C764        C953   1.490       .  S
C765        H768   1.083       .  S
C769        C770   1.416       .  A
C769        C774   1.423       .  A
C769        C943   1.518       .  S
C770        C771   1.403       .  A
C770        H775   1.082       .  S
C771        C772   1.393       .  A
C771        C923   1.477       .  S
C772        C773   1.393       .  A
C772        H776   1.085       .  S
C773        C774   1.420       .  A
C773        C893   1.495       .  S
C774        H777   1.083       .  S
C778        C779   1.410       .  A
C778        C783   1.411       .  A
C778       C1263   1.494       .  S
C779        C780   1.408       .  A
C779        H784   1.084       .  S
C780        C781   1.402       .  A
C780       C1213   1.487       .  S
C781        C782   1.403       .  A
C781        H785   1.085       .  S
C782        C783   1.407       .  A
C782       C1193   1.491       .  S
C783        H786   1.084       .  S
C787        C788   1.409       .  A
C787        C792   1.408       .  A
C787       C1613   1.486       .  S
C788        C789   1.407       .  A
C788        H793   1.084       .  S
C789        C790   1.397       .  A
C789       C1560   1.495       .  S
C790        C791   1.401       .  A
C790        H794   1.084       .  S
C791        C792   1.403       .  A
C791       C1543   1.488       .  S
C792        H795   1.084       .  S
C796        C797   1.413       .  A
C796        C801   1.411       .  A
C796        C853   1.498       .  S
C797        C798   1.411       .  A
C797        H802   1.084       .  S
C798        C799   1.393       .  A
C798       C1170   1.486       .  S
C799        C800   1.391       .  A
C799        H803   1.086       .  S
C800        C801   1.407       .  A
C800       C1583   1.475       .  S
C801        H804   1.084       .  S
C805        C806   1.413       .  A
C805        C810   1.410       .  A
C805        C843   1.502       .  S
C806        C807   1.414       .  A
C806        H811   1.082       .  S
C807        C808   1.391       .  A
C807       C1233   1.496       .  S
C808        C809   1.399       .  A
C808        H812   1.079       .  S
C809        C810   1.412       .  A
C809        C930   1.501       .  S
C810        H813   1.082       .  S
C814        C815   1.412       .  A
C814        C819   1.414       .  A
C814        C830   1.501       .  S
C815        C816   1.409       .  A
C815        H820   1.084       .  S
C816        C817   1.400       .  A
C816        C880   1.495       .  S
C817        C818   1.402       .  A
C817        H821   1.085       .  S
C818        C819   1.416       .  A
C818       C1523   1.497       .  S
C819        H822   1.083       .  S
C823        C824   1.434       .  A
C823        C828   1.440       .  A
C823        C850   1.529       .  S
C824        C825   1.440       .  A
C824       C1493   1.520       .  S
C825        C826   1.447       .  A
C825        C833   1.530       .  S
C826        C827   1.442       .  A
C826        C860   1.520       .  S
C827        C828   1.441       .  A
C827        C840   1.540       .  S
C828       C1140   1.512       .  S
C829        C830   1.407       .  A
C829        C834   1.422       .  A
C829       Br836   1.927       .  S
C830        C831   1.404       .  A
C831        C832   1.408       .  A
C831       Br838   1.927       .  S
C832        C833   1.420       .  A
C832       Br837   1.907       .  S
C833        C834   1.426       .  A
C834       Br835   1.925       .  S
C839        C840   1.423       .  A
C839        C844   1.417       .  A
C839       Br846   1.917       .  S
C840        C841   1.428       .  A
C841        C842   1.420       .  A
C841       Br848   1.908       .  S
C842        C843   1.406       .  A
C842       Br847   1.937       .  S
C843        C844   1.405       .  A
C844       Br845   1.930       .  S
C849        C850   1.427       .  A
C849        C854   1.417       .  A
C849       Br856   1.928       .  S
C850        C851   1.421       .  A
C851        C852   1.412       .  A
C851       Br858   1.908       .  S
C852        C853   1.407       .  A
C852       Br857   1.928       .  S
C853        C854   1.405       .  A
C854       Br855   1.931       .  S
C859        C860   1.424       .  A
C859        C864   1.409       .  A
C859       Br866   1.918       .  S
C860        C861   1.421       .  A
C861        C862   1.414       .  A
C861       Br868   1.910       .  S
C862        C863   1.403       .  A
C862       Br867   1.929       .  S
C863        C864   1.400       .  A
C864       Br865   1.936       .  S
C869        C870   1.403       .  A
C869        C874   1.384       .  A
C869       Br876   1.931       .  S
C870        C871   1.420       .  A
C871        C872   1.410       .  A
C871       Br878   1.920       .  S
C872        C873   1.410       .  A
C872       Br877   1.929       .  S
C873        C874   1.404       .  A
C874       Br875   1.902       .  S
C879        C880   1.409       .  A
C879        C884   1.409       .  A
C879       Br886   1.925       .  S
C880        C881   1.410       .  A
C881        C882   1.414       .  A
C881       Br888   1.934       .  S
C882        C883   1.425       .  A
C882       Br887   1.935       .  S
C883        C884   1.425       .  A
C884       Br885   1.938       .  S
C889        C890   1.400       .  A
C889        C894   1.406       .  A
C889       Br896   1.920       .  S
C890        C891   1.417       .  A
C891        C892   1.413       .  A
C891       Br898   1.925       .  S
C892        C893   1.410       .  A
C892       Br897   1.926       .  S
C893        C894   1.419       .  A
C894       Br895   1.925       .  S
C899        C900   1.409       .  A
C899        C904   1.403       .  A
C899       Br906   1.933       .  S
C900        C901   1.403       .  A
C901        C902   1.408       .  A
C901       Br908   1.931       .  S
C902        C903   1.420       .  A
C902       Br907   1.925       .  S
C903        C904   1.418       .  A
C904       Br905   1.941       .  S
C909        C910   1.420       .  A
C909        C914   1.413       .  A
C909       Br916   1.933       .  S
C910        C911   1.411       .  A
C911        C912   1.399       .  A
C911       Br918   1.938       .  S
C912        C913   1.422       .  A
C912       Br917   1.938       .  S
C913        C914   1.414       .  A
C914       Br915   1.932       .  S
C919        C920   1.412       .  A
C919        C924   1.414       .  A
C919       Br926   1.927       .  S
C920        C921   1.414       .  A
C921        C922   1.398       .  A
C921       Br928   1.931       .  S
C922        C923   1.405       .  A
C922       Br927   1.934       .  S
C923        C924   1.409       .  A
C924       Br925   1.924       .  S
C929        C930   1.416       .  A
C929        C934   1.405       .  A
C929       Br936   1.935       .  S
C930        C931   1.420       .  A
C931        C932   1.409       .  A
C931       Br938   1.934       .  S
C932        C933   1.411       .  A
C932       Br937   1.931       .  S
C933        C934   1.419       .  A
C934       Br935   1.928       .  S
C939        C940   1.416       .  A
C939        C944   1.401       .  A
C939       Br946   1.918       .  S
C940        C941   1.441       .  A
C941        C942   1.432       .  A
C941       Br948   1.910       .  S
C942        C943   1.419       .  A
C942       Br947   1.932       .  S
C943        C944   1.416       .  A
C944       Br945   1.920       .  S
C949        C950   1.413       .  A
C949        C954   1.392       .  A
C949       Br956   1.919       .  S
C950        C951   1.445       .  A
C951        C952   1.426       .  A
C951       Br958   1.911       .  S
C952        C953   1.409       .  A
C952       Br957   1.934       .  S
C953        C954   1.406       .  A
C954       Br955   1.917       .  S
C959        C960   1.423       .  A
C959        C964   1.412       .  A
C959       Br966   1.924       .  S
C960        C961   1.427       .  A
C961        C962   1.415       .  A
C961       Br968   1.926       .  S
C962        C963   1.410       .  A
C962       Br967   1.932       .  S
C963        C964   1.405       .  A
C964       Br965   1.932       .  S
C969        C970   1.414       .  A
C969        C974   1.416       .  A
C969       Br976   1.915       .  S
C970        C971   1.423       .  A
C971        C972   1.403       .  A
C971       Br978   1.917       .  S
C972        C973   1.402       .  A
C972       Br977   1.938       .  S
C973        C974   1.407       .  A
C974       Br975   1.926       .  S
C979        C980   1.411       .  A
C979        C984   1.398       .  A
C979       Br986   1.941       .  S
C980        C981   1.408       .  A
C981        C982   1.407       .  A
C981       Br988   1.929       .  S
C982        C983   1.410       .  A
C982       Br987   1.926   1_655  S
C983        C984   1.410       .  A
C984       Br985   1.914       .  S
C989        C990   1.407       .  A
C989        C994   1.410       .  A
C989       Br996   1.932       .  S
C990        C991   1.406       .  A
C991        C992   1.407       .  A
C991       Br998   1.931       .  S
C992        C993   1.421       .  A
C992       Br997   1.932       .  S
C993        C994   1.419       .  A
C994       Br995   1.927       .  S
C999       C1000   1.405       .  A
C999       C1004   1.405       .  A
C999      Br1006   1.935       .  S
C1000      C1001   1.417       .  A
C1001      C1002   1.401       .  A
C1001     Br1008   1.936       .  S
C1002      C1003   1.408       .  A
C1002     Br1007   1.930       .  S
C1003      C1004   1.420       .  A
C1004     Br1005   1.924       .  S
C1009      C1010   1.418       .  A
C1009      C1014   1.398       .  A
C1009     Br1016   1.921       .  S
C1010      C1011   1.410       .  A
C1011      C1012   1.416       .  A
C1011     Br1018   1.924       .  S
C1012      C1013   1.414       .  A
C1012     Br1017   1.926       .  S
C1013      C1014   1.403       .  A
C1014     Br1015   1.934       .  S
C1019      C1020   1.416       .  A
C1019      C1024   1.415       .  A
C1019     Br1026   1.935       .  S
C1020      C1021   1.428       .  A
C1021      C1022   1.410       .  A
C1021     Br1028   1.927       .  S
C1022      C1023   1.404       .  A
C1022     Br1027   1.934       .  S
C1023      C1024   1.416       .  A
C1024     Br1025   1.920       .  S
C1029      C1030   1.418       .  A
C1029      C1034   1.410       .  A
C1029     Br1036   1.922       .  S
C1030      C1031   1.416       .  A
C1031      C1032   1.405       .  A
C1031     Br1038   1.924       .  S
C1032      C1033   1.406       .  A
C1032     Br1037   1.934       .  S
C1033      C1034   1.412       .  A
C1034     Br1035   1.936       .  S
C1039      C1040   1.425       .  A
C1039      C1044   1.416       .  A
C1039     Br1046   1.914       .  S
C1040      C1041   1.422       .  A
C1041      C1042   1.412       .  A
C1041     Br1048   1.927       .  S
C1042      C1043   1.405       .  A
C1042     Br1047   1.933       .  S
C1043      C1044   1.405       .  A
C1044     Br1045   1.933       .  S
C1049      C1050   1.405       .  A
C1049      C1054   1.407       .  A
C1049     Br1056   1.938       .  S
C1050      C1051   1.404       .  A
C1051      C1052   1.414       .  A
C1051     Br1058   1.930       .  S
C1052      C1053   1.426       .  A
C1052     Br1057   1.928       .  S
C1053      C1054   1.426       .  A
C1054     Br1055   1.932       .  S
C1059      C1060   1.430       .  A
C1059      C1064   1.431       .  A
C1059     Br1066   1.912       .  S
C1060      C1061   1.412       .  A
C1061      C1062   1.399       .  A
C1061     Br1068   1.929       .  S
C1062      C1063   1.413       .  A
C1062     Br1067   1.923       .  S
C1063      C1064   1.420       .  A
C1064     Br1065   1.930       .  S
C1069      C1070   1.402       .  A
C1069      C1074   1.408       .  A
C1069     Br1076   1.938       .  S
C1070      C1071   1.400       .  A
C1071      C1072   1.413       .  A
C1071     Br1078   1.930       .  S
C1072      C1073   1.425       .  A
C1072     Br1077   1.922       .  S
C1073      C1074   1.424       .  A
C1074     Br1075   1.908       .  S
C1079      C1080   1.406       .  A
C1079      C1084   1.419       .  A
C1079     Br1086   1.924       .  S
C1080      C1081   1.397       .  A
C1081      C1082   1.394       .  A
C1081     Br1088   1.938       .  S
C1082      C1083   1.416       .  A
C1082     Br1087   1.910       .  S
C1083      C1084   1.422       .  A
C1084     Br1085   1.925       .  S
C1089      C1090   1.411       .  A
C1089      C1094   1.405       .  A
C1089     Br1096   1.914       .  S
C1090      C1091   1.409       .  A
C1091      C1092   1.416       .  A
C1091     Br1098   1.917       .  S
C1092      C1093   1.410       .  A
C1092     Br1097   1.925       .  S
C1093      C1094   1.408       .  A
C1094     Br1095   1.928       .  S
C1099      C1100   1.405       .  A
C1099      C1104   1.410       .  A
C1099     Br1106   1.926       .  S
C1100      C1101   1.406       .  A
C1101      C1102   1.417       .  A
C1101     Br1108   1.929       .  S
C1102      C1103   1.425       .  A
C1102     Br1107   1.928       .  S
C1103      C1104   1.420       .  A
C1104     Br1105   1.911       .  S
C1109      C1110   1.410       .  A
C1109      C1114   1.402       .  A
C1109     Br1116   1.929       .  S
C1110      C1111   1.412       .  A
C1111      C1112   1.413       .  A
C1111     Br1118   1.926       .  S
C1112      C1113   1.405       .  A
C1112     Br1117   1.919       .  S
C1113      C1114   1.407       .  A
C1114     Br1115   1.926       .  S
C1119      C1120   1.404       .  A
C1119      C1124   1.415       .  A
C1119     Br1126   1.929       .  S
C1120      C1121   1.404       .  A
C1121      C1122   1.412       .  A
C1121     Br1128   1.938       .  S
C1122      C1123   1.427       .  A
C1122     Br1127   1.912       .  S
C1123      C1124   1.425       .  A
C1124     Br1125   1.932       .  S
C1129      C1130   1.418       .  A
C1129      C1134   1.405       .  A
C1129     Br1136   1.934       .  S
C1130      C1131   1.422       .  A
C1131      C1132   1.422       .  A
C1131     Br1138   1.933       .  S
C1132      C1133   1.417       .  A
C1132     Br1137   1.921       .  S
C1133      C1134   1.419       .  A
C1134     Br1135   1.938       .  S
C1139      C1140   1.427       .  A
C1139      C1144   1.411       .  A
C1139     Br1146   1.914       .  S
C1140      C1141   1.414       .  A
C1141      C1142   1.398       .  A
C1141     Br1148   1.907       .  S
C1142      C1143   1.402       .  A
C1142     Br1147   1.929       .  S
C1143      C1144   1.396       .  A
C1144     Br1145   1.932       .  S
C1149      C1150   1.420       .  A
C1149      C1154   1.416       .  A
C1149     Br1156   1.929   1_556  S
C1150      C1151   1.421       .  A
C1151      C1152   1.401       .  A
C1151     Br1158   1.937       .  S
C1152      C1153   1.405       .  A
C1152     Br1157   1.927       .  S
C1153      C1154   1.411       .  A
C1154     Br1155   1.930       .  S
C1159      C1160   1.431       .  A
C1159      C1164   1.412       .  A
C1159     Br1166   1.935       .  S
C1160      C1161   1.422       .  A
C1161      C1162   1.406       .  A
C1161     Br1168   1.932   1_556  S
C1162      C1163   1.406       .  A
C1162     Br1167   1.931       .  S
C1163      C1164   1.408       .  A
C1164     Br1165   1.936       .  S
C1169      C1170   1.404       .  A
C1169      C1174   1.407       .  A
C1169     Br1176   1.946       .  S
C1170      C1171   1.411       .  A
C1171      C1172   1.415       .  A
C1171     Br1178   1.932       .  S
C1172      C1173   1.420       .  A
C1172     Br1177   1.931       .  S
C1173      C1174   1.441       .  A
C1174     Br1175   1.947       .  S
C1179      C1180   1.422       .  A
C1179      C1184   1.406       .  A
C1179     Br1186   1.928       .  S
C1180      C1181   1.438       .  A
C1181      C1182   1.397       .  A
C1181     Br1188   1.952       .  S
C1182      C1183   1.397       .  A
C1182     Br1187   1.931       .  S
C1183      C1184   1.402       .  A
C1184     Br1185   1.934       .  S
C1189      C1190   1.431       .  A
C1189      C1194   1.419       .  A
C1189     Br1196   1.933       .  S
C1190      C1191   1.425       .  A
C1191      C1192   1.406       .  A
C1191     Br1198   1.926       .  S
C1192      C1193   1.404       .  A
C1192     Br1197   1.933       .  S
C1193      C1194   1.406       .  A
C1194     Br1195   1.931       .  S
C1199      C1200   1.410       .  A
C1199      C1204   1.408       .  A
C1199     Br1206   1.934       .  S
C1200      C1201   1.410       .  A
C1201      C1202   1.408       .  A
C1201     Br1208   1.936       .  S
C1202      C1203   1.431       .  A
C1202     Br1207   1.946       .  S
C1203      C1204   1.420       .  A
C1204     Br1205   1.934       .  S
C1209      C1210   1.414       .  A
C1209      C1214   1.417       .  A
C1209     Br1216   1.925       .  S
C1210      C1211   1.418       .  A
C1211      C1212   1.404       .  A
C1211     Br1218   1.930       .  S
C1212      C1213   1.406       .  A
C1212     Br1217   1.932       .  S
C1213      C1214   1.410       .  A
C1214     Br1215   1.926       .  S
C1219      C1220   1.410       .  A
C1219      C1224   1.406       .  A
C1219     Br1226   1.932       .  S
C1220      C1221   1.403       .  A
C1221      C1222   1.388       .  A
C1221     Br1228   1.908       .  S
C1222      C1223   1.413       .  A
C1222     Br1227   1.930       .  S
C1223      C1224   1.420       .  A
C1224     Br1225   1.934       .  S
C1229      C1230   1.397       .  A
C1229      C1234   1.407       .  A
C1229     Br1236   1.924       .  S
C1230      C1231   1.419       .  A
C1231      C1232   1.410       .  A
C1231     Br1238   1.919       .  S
C1232      C1233   1.412       .  A
C1232     Br1237   1.936       .  S
C1233      C1234   1.424       .  A
C1234     Br1235   1.932       .  S
C1239      C1240   1.412       .  A
C1239      C1244   1.416       .  A
C1239     Br1246   1.922       .  S
C1240      C1241   1.413       .  A
C1241      C1242   1.396       .  A
C1241     Br1248   1.911       .  S
C1242      C1243   1.403       .  A
C1242     Br1247   1.934       .  S
C1243      C1244   1.409       .  A
C1244     Br1245   1.925       .  S
C1249      C1250   1.409       .  A
C1249      C1254   1.413       .  A
C1249     Br1256   1.925       .  S
C1250      C1251   1.413       .  A
C1251      C1252   1.403       .  A
C1251     Br1258   1.921       .  S
C1252      C1253   1.411       .  A
C1252     Br1257   1.938       .  S
C1253      C1254   1.412       .  A
C1254     Br1255   1.929       .  S
C1259      C1260   1.427       .  A
C1259      C1264   1.417       .  A
C1259     Br1266   1.911       .  S
C1260      C1261   1.425       .  A
C1261      C1262   1.415       .  A
C1261     Br1268   1.920       .  S
C1262      C1263   1.403       .  A
C1262     Br1267   1.933       .  S
C1263      C1264   1.405       .  A
C1264     Br1265   1.937       .  S
C1269      C1270   1.424       .  A
C1269      C1274   1.410       .  A
C1269     Br1276   1.915       .  S
C1270      C1271   1.421       .  A
C1271      C1272   1.413       .  A
C1271     Br1278   1.913       .  S
C1272      C1273   1.408       .  A
C1272     Br1277   1.929       .  S
C1273      C1274   1.401       .  A
C1274     Br1275   1.935       .  S
C1279      C1280   1.426       .  A
C1279      C1284   1.413       .  A
C1279     Br1286   1.917       .  S
C1280      C1281   1.423       .  A
C1281      C1282   1.414       .  A
C1281     Br1288   1.913       .  S
C1282      C1283   1.406       .  A
C1282     Br1287   1.927       .  S
C1283      C1284   1.401       .  A
C1284     Br1285   1.933       .  S
C1289      C1290   1.406       .  A
C1289      C1294   1.416       .  A
C1289     Br1296   1.933       .  S
C1290      C1291   1.402       .  A
C1291      C1292   1.411       .  A
C1291     Br1298   1.936       .  S
C1292      C1293   1.425       .  A
C1292     Br1297   1.916       .  S
C1293      C1294   1.423       .  A
C1294     Br1295   1.911       .  S
C1299      C1300   1.426       .  A
C1299      C1304   1.404       .  A
C1299     Br1306   1.931       .  S
C1300      C1301   1.424       .  A
C1301      C1302   1.410       .  A
C1301     Br1308   1.934       .  S
C1302      C1303   1.403       .  A
C1302     Br1307   1.932       .  S
C1303      C1304   1.401       .  A
C1304     Br1305   1.938       .  S
C1309      C1310   1.426       .  A
C1309      C1314   1.404       .  A
C1309     Br1316   1.934       .  S
C1310      C1311   1.414       .  A
C1311      C1312   1.413       .  A
C1311     Br1318   1.936       .  S
C1312      C1313   1.423       .  A
C1312     Br1317   1.930       .  S
C1313      C1314   1.404       .  A
C1314     Br1315   1.934       .  S
C1319      C1320   1.417       .  A
C1319      C1324   1.390       .  A
C1319     Br1326   1.913       .  S
C1320      C1321   1.410       .  A
C1321      C1322   1.411       .  A
C1321     Br1328   1.930       .  S
C1322      C1323   1.418       .  A
C1322     Br1327   1.930       .  S
C1323      C1324   1.396       .  A
C1324     Br1325   1.931       .  S
C1329      C1330   1.407       .  A
C1329      C1334   1.401       .  A
C1329     Br1336   1.937       .  S
C1330      C1331   1.400       .  A
C1331      C1332   1.408       .  A
C1331     Br1338   1.930       .  S
C1332      C1333   1.425       .  A
C1332     Br1337   1.932       .  S
C1333      C1334   1.418       .  A
C1334     Br1335   1.930       .  S
C1339      C1340   1.432       .  A
C1339      C1344   1.415       .  A
C1339     Br1346   1.932       .  S
C1340      C1341   1.403       .  A
C1341      C1342   1.386       .  A
C1341     Br1348   1.920       .  S
C1342      C1343   1.396       .  A
C1342     Br1347   1.924       .  S
C1343      C1344   1.403       .  A
C1344     Br1345   1.928       .  S
C1349      C1350   1.423       .  A
C1349      C1354   1.405       .  A
C1349     Br1356   1.929       .  S
C1350      C1351   1.410       .  A
C1351      C1352   1.411       .  A
C1351     Br1358   1.934       .  S
C1352      C1353   1.413       .  A
C1352     Br1357   1.910       .  S
C1353      C1354   1.399       .  A
C1354     Br1355   1.919       .  S
C1359      C1360   1.403       .  A
C1359      C1364   1.410       .  A
C1359     Br1366   1.934       .  S
C1360      C1361   1.402       .  A
C1361      C1362   1.413       .  A
C1361     Br1368   1.937       .  S
C1362      C1363   1.429       .  A
C1362     Br1367   1.910       .  S
C1363      C1364   1.422       .  A
C1364     Br1365   1.923       .  S
C1369      C1370   1.427       .  A
C1369      C1374   1.418       .  A
C1369     Br1376   1.925       .  S
C1370      C1371   1.428       .  A
C1371      C1372   1.415       .  A
C1371     Br1378   1.908       .  S
C1372      C1373   1.402       .  A
C1372     Br1377   1.931       .  S
C1373      C1374   1.405       .  A
C1374     Br1375   1.931       .  S
C1379      C1380   1.428       .  A
C1379      C1384   1.413       .  A
C1379     Br1386   1.909       .  S
C1380      C1381   1.424       .  A
C1381      C1382   1.413       .  A
C1381     Br1388   1.922       .  S
C1382      C1383   1.403       .  A
C1382     Br1387   1.932       .  S
C1383      C1384   1.401       .  A
C1384     Br1385   1.932       .  S
C1389      C1390   1.406       .  A
C1389      C1394   1.415       .  A
C1389     Br1396   1.924       .  S
C1390      C1391   1.397       .  A
C1391      C1392   1.393       .  A
C1391     Br1398   1.929       .  S
C1392      C1393   1.412       .  A
C1392     Br1397   1.909       .  S
C1393      C1394   1.418       .  A
C1394     Br1395   1.924       .  S
C1399      C1400   1.409       .  A
C1399      C1404   1.402       .  A
C1399     Br1406   1.921       .  S
C1400      C1401   1.405       .  A
C1401      C1402   1.409       .  A
C1401     Br1408   1.929       .  S
C1402      C1403   1.412       .  A
C1402     Br1407   1.917       .  S
C1403      C1404   1.409       .  A
C1404     Br1405   1.930       .  S
C1409      C1410   1.405       .  A
C1409      C1414   1.408       .  A
C1409     Br1416   1.933       .  S
C1410      C1411   1.401       .  A
C1411      C1412   1.408       .  A
C1411     Br1418   1.933       .  S
C1412      C1413   1.422       .  A
C1412     Br1417   1.925       .  S
C1413      C1414   1.421       .  A
C1414     Br1415   1.913       .  S
C1419      C1420   1.409       .  A
C1419      C1424   1.418       .  A
C1419     Br1426   1.927       .  S
C1420      C1421   1.404       .  A
C1421      C1422   1.396       .  A
C1421     Br1428   1.927       .  S
C1422      C1423   1.410       .  A
C1422     Br1427   1.921       .  S
C1423      C1424   1.422       .  A
C1424     Br1425   1.926       .  S
C1429      C1430   1.406       .  A
C1429      C1434   1.410       .  A
C1429     Br1436   1.932       .  S
C1430      C1431   1.422       .  A
C1431      C1432   1.405       .  A
C1431     Br1438   1.937       .  S
C1432      C1433   1.411       .  A
C1432     Br1437   1.935       .  S
C1433      C1434   1.425       .  A
C1434     Br1435   1.934       .  S
C1439      C1440   1.416       .  A
C1439      C1444   1.406       .  A
C1439     Br1446   1.931       .  S
C1440      C1441   1.410   1_556  A
C1441      C1442   1.401   1_554  A
C1441     Br1448   1.933       .  S
C1442      C1443   1.412       .  A
C1442     Br1447   1.935       .  S
C1443      C1444   1.405       .  A
C1444     Br1445   1.931       .  S
C1449      C1450   1.402       .  A
C1449      C1454   1.406       .  A
C1449     Br1456   1.936       .  S
C1450      C1451   1.401       .  A
C1451      C1452   1.412       .  A
C1451     Br1458   1.930       .  S
C1452      C1453   1.425       .  A
C1452     Br1457   1.926       .  S
C1453      C1454   1.423       .  A
C1454     Br1455   1.910       .  S
C1459      C1460   1.419       .  A
C1459      C1464   1.411       .  A
C1459     Br1466   1.932       .  S
C1460      C1461   1.431       .  A
C1461      C1462   1.404       .  A
C1461     Br1468   1.945       .  S
C1462      C1463   1.406       .  A
C1462     Br1467   1.936       .  S
C1463      C1464   1.410       .  A
C1464     Br1465   1.933       .  S
C1469      C1470   1.416       .  A
C1469      C1474   1.405       .  A
C1469     Br1476   1.912       .  S
C1470      C1471   1.427       .  A
C1471      C1472   1.412       .  A
C1471     Br1478   1.917       .  S
C1472      C1473   1.397       .  A
C1472     Br1477   1.931       .  S
C1473      C1474   1.407       .  A
C1474     Br1475   1.933       .  S
C1479      C1480   1.422       .  A
C1479      C1484   1.408       .  A
C1479     Br1486   1.925       .  S
C1480      C1481   1.422       .  A
C1481      C1482   1.397       .  A
C1481     Br1488   1.935       .  S
C1482      C1483   1.404       .  A
C1482     Br1487   1.932       .  S
C1483      C1484   1.400       .  A
C1484     Br1485   1.930       .  S
C1489      C1490   1.400       .  A
C1489      C1494   1.407       .  A
C1489     Br1496   1.936       .  S
C1490      C1491   1.403       .  A
C1491      C1492   1.411       .  A
C1491     Br1498   1.938       .  S
C1492      C1493   1.424       .  A
C1492     Br1497   1.907       .  S
C1493      C1494   1.422       .  A
C1494     Br1495   1.916       .  S
C1499      C1500   1.408       .  A
C1499      C1504   1.403       .  A
C1499     Br1506   1.932       .  S
C1500      C1501   1.402       .  A
C1501      C1502   1.403       .  A
C1501     Br1508   1.933       .  S
C1502      C1503   1.419       .  A
C1502     Br1507   1.928       .  S
C1503      C1504   1.415       .  A
C1504     Br1505   1.934       .  S
C1509      C1510   1.416       .  A
C1509      C1514   1.400       .  A
C1509     Br1516   1.926       .  S
C1510      C1511   1.411       .  A
C1511      C1512   1.411       .  A
C1511     Br1518   1.931       .  S
C1512      C1513   1.416       .  A
C1512     Br1517   1.925       .  S
C1513      C1514   1.411       .  A
C1514     Br1515   1.932       .  S
C1519      C1520   1.418       .  A
C1519      C1524   1.398       .  A
C1519     Br1526   1.919       .  S
C1520      C1521   1.411       .  A
C1521      C1522   1.422       .  A
C1521     Br1528   1.925       .  S
C1522      C1523   1.420       .  A
C1522     Br1527   1.926       .  S
C1523      C1524   1.404       .  A
C1524     Br1525   1.931       .  S
C1529      C1530   1.405       .  A
C1529      C1534   1.409       .  A
C1529     Br1536   1.925       .  S
C1530      C1531   1.399       .  A
C1531      C1532   1.391       .  A
C1531     Br1538   1.936       .  S
C1532      C1533   1.416       .  A
C1532     Br1537   1.926       .  S
C1533      C1534   1.411       .  A
C1534     Br1535   1.924       .  S
C1539      C1540   1.417       .  A
C1539      C1544   1.396       .  A
C1539     Br1546   1.931       .  S
C1540      C1541   1.421       .  A
C1541      C1542   1.416       .  A
C1541     Br1548   1.927       .  S
C1542      C1543   1.411       .  A
C1542     Br1547   1.931       .  S
C1543      C1544   1.408       .  A
C1544     Br1545   1.940       .  S
C1549      C1550   1.410       .  A
C1549      C1554   1.408       .  A
C1549     Br1556   1.921       .  S
C1550      C1551   1.397       .  A
C1551      C1552   1.403       .  A
C1551     Br1558   1.929   1_655  S
C1552      C1553   1.426       .  A
C1552     Br1557   1.930       .  S
C1553      C1554   1.413       .  A
C1554     Br1555   1.935       .  S
C1559      C1560   1.412       .  A
C1559      C1564   1.412       .  A
C1559     Br1566   1.936       .  S
C1560      C1561   1.413       .  A
C1561      C1562   1.411       .  A
C1561     Br1568   1.939       .  S
C1562      C1563   1.427       .  A
C1562     Br1567   1.933       .  S
C1563      C1564   1.424       .  A
C1564     Br1565   1.937       .  S
C1569      C1570   1.411       .  A
C1569      C1574   1.407       .  A
C1569     Br1576   1.918       .  S
C1570      C1571   1.417       .  A
C1571      C1572   1.408       .  A
C1571     Br1578   1.907       .  S
C1572      C1573   1.401       .  A
C1572     Br1577   1.934       .  S
C1573      C1574   1.410       .  A
C1574     Br1575   1.929       .  S
C1579      C1580   1.410       .  A
C1579      C1584   1.404       .  A
C1579     Br1586   1.920       .  S
C1580      C1581   1.417       .  A
C1581      C1582   1.406       .  A
C1581     Br1588   1.928       .  S
C1582      C1583   1.406       .  A
C1582     Br1587   1.931       .  S
C1583      C1584   1.409       .  A
C1584     Br1585   1.927       .  S
C1589      C1590   1.408       .  A
C1589      C1594   1.403       .  A
C1589     Br1596   1.936       .  S
C1590      C1591   1.425       .  A
C1591      C1592   1.407       .  A
C1591     Br1598   1.932       .  S
C1592      C1593   1.409       .  A
C1592     Br1597   1.938       .  S
C1593      C1594   1.424       .  A
C1594     Br1595   1.934       .  S
C1599      C1600   1.414       .  A
C1599      C1604   1.403       .  A
C1599     Br1606   1.936       .  S
C1600      C1601   1.421       .  A
C1601      C1602   1.411       .  A
C1601     Br1608   1.923       .  S
C1602      C1603   1.404       .  A
C1602     Br1607   1.931       .  S
C1603      C1604   1.409       .  A
C1604     Br1605   1.934       .  S
C1609      C1610   1.424       .  A
C1609      C1614   1.412       .  A
C1609     Br1616   1.922       .  S
C1610      C1611   1.427       .  A
C1611      C1612   1.412       .  A
C1611     Br1618   1.911       .  S
C1612      C1613   1.404       .  A
C1612     Br1617   1.940       .  S
C1613      C1614   1.402       .  A
C1614     Br1615   1.932       .  S
C1619      C1620   1.405       .  A
C1619      C1624   1.414       .  A
C1619     Br1626   1.932       .  S
C1620      C1621   1.403       .  A
C1621      C1622   1.415       .  A
C1621     Br1628   1.938       .  S
C1622      C1623   1.430       .  A
C1622     Br1627   1.910       .  S
C1623      C1624   1.424       .  A
C1624     Br1625   1.927       .  S
C1629      C1630   1.402       .  A
C1629      C1634   1.411       .  A
C1629     Br1636   1.936       .  S
C1630      C1631   1.401       .  A
C1631      C1632   1.409       .  A
C1631     Br1638   1.933       .  S
C1632      C1633   1.424       .  A
C1632     Br1637   1.923       .  S
C1633      C1634   1.424       .  A
C1634     Br1635   1.909       .  S
C1639      C1640   1.407       .  A
C1639      C1644   1.414       .  A
C1639     Br1646   1.937       .  S
C1640      C1641   1.403       .  A
C1641      C1642   1.415       .  A
C1641     Br1648   1.931       .  S
C1642      C1643   1.425       .  A
C1642     Br1647   1.923       .  S
C1643      C1644   1.424       .  A
C1644     Br1645   1.912       .  S
C1649      C1650   1.419       .  A
C1649      C1654   1.411       .  A
C1649     Br1656   1.928       .  S
C1650      C1651   1.419       .  A
C1651      C1652   1.401       .  A
C1651     Br1658   1.915       .  S
C1652      C1653   1.404       .  A
C1652     Br1657   1.941       .  S
C1653      C1654   1.405       .  A
C1654     Br1655   1.929       .  S
C1659      C1660   1.412       .  A
C1659      C1664   1.414       .  A
C1659     Br1666   1.934       .  S
C1660      C1661   1.411       .  A
C1661      C1662   1.412       .  A
C1661     Br1668   1.939       .  S
C1662      C1663   1.434       .  A
C1662     Br1667   1.944       .  S
C1663      C1664   1.423       .  A
C1664     Br1665   1.934   1_556  S
C1669      C1670   1.423       .  A
C1669      C1674   1.420       .  A
C1669     Br1676   1.923   1_565  S
C1670      C1671   1.420       .  A
C1671      C1672   1.400       .  A
C1671     Br1678   1.904       .  S
C1672      C1673   1.402       .  A
C1672     Br1677   1.944       .  S
C1673      C1674   1.407       .  A
C1674     Br1675   1.927       .  S
C1679      C1680   1.407       .  A
C1679      C1684   1.399       .  A
C1679     Br1686   1.927       .  S
C1680      C1681   1.406       .  A
C1681      C1682   1.414       .  A
C1681     Br1688   1.929       .  S
C1682      C1683   1.419       .  A
C1682     Br1687   1.923   1_556  S
C1683      C1684   1.410       .  A
C1684     Br1685   1.925       .  S
C1689      C1690   1.408       .  A
C1689      C1694   1.416       .  A
C1689     Br1696   1.928       .  S
C1690      C1691   1.401       .  A
C1691      C1692   1.392       .  A
C1691     Br1698   1.926       .  S
C1692      C1693   1.411       .  A
C1692     Br1697   1.920       .  S
C1693      C1694   1.424       .  A
C1694     Br1695   1.924       .  S
C1699      C1700   1.413       .  A
C1699      C1704   1.391       .  A
C1699     Br1706   1.934       .  S
C1700      C1701   1.423       .  A
C1701      C1702   1.415       .  A
C1701     Br1708   1.933       .  S
C1702      C1703   1.413       .  A
C1702     Br1707   1.929   1_556  S
C1703      C1704   1.408       .  A
C1704     Br1705   1.909       .  S
C1709      C1710   1.430       .  A
C1709      C1714   1.421       .  A
C1709     Br1716   1.923       .  S
C1710      C1711   1.423       .  A
C1711      C1712   1.416       .  A
C1711     Br1718   1.924       .  S
C1712      C1713   1.408       .  A
C1712     Br1717   1.933       .  S
C1713      C1714   1.408       .  A
C1714     Br1715   1.929       .  S
C1719      C1720   1.413       .  A
C1719      C1724   1.408       .  A
C1719     Br1726   1.932       .  S
C1720      C1721   1.410       .  A
C1721      C1722   1.413       .  A
C1721     Br1728   1.928       .  S
C1722      C1723   1.415       .  A
C1722     Br1727   1.923   1_556  S
C1723      C1724   1.414       .  A
C1724     Br1725   1.931       .  S
C1729      C1730   1.411       .  A
C1729      C1734   1.418       .  A
C1729     Br1736   1.929       .  S
C1730      C1731   1.419       .  A
C1731      C1732   1.408       .  A
C1731     Br1738   1.936       .  S
C1732      C1733   1.414       .  A
C1732     Br1737   1.923   1_655  S
C1733      C1734   1.421       .  A
C1734     Br1735   1.930       .  S
C1739      C1740   1.400       .  A
C1739      C1744   1.406       .  A
C1739     Br1746   1.922       .  S
C1740      C1741   1.410       .  A
C1741      C1742   1.402       .  A
C1741     Br1748   1.915       .  S
C1742      C1743   1.418       .  A
C1742     Br1747   1.931       .  S
C1743      C1744   1.418       .  A
C1744     Br1745   1.918       .  S
C1749      C1750   1.403       .  A
C1749      C1754   1.400       .  A
C1749     Br1756   1.947       .  S
C1750      C1751   1.404       .  A
C1751      C1752   1.411       .  A
C1751     Br1758   1.928       .  S
C1752      C1753   1.412       .  A
C1752     Br1757   1.910       .  S
C1753      C1754   1.416       .  A
C1754     Br1755   1.902       .  S
C1759      C1760   1.413       .  A
C1759      C1764   1.415       .  A
C1759     Br1766   1.925       .  S
C1760      C1761   1.390       .  A
C1761      C1762   1.395       .  A
C1761     Br1768   1.927       .  S
C1762      C1763   1.429       .  A
C1762     Br1767   1.931       .  S
C1763      C1764   1.419       .  A
C1764     Br1765   1.930       .  S
C1769      C1770   1.426       .  A
C1769      C1774   1.416       .  A
C1769     Br1776   1.934       .  S
C1770      C1771   1.417       .  A
C1771      C1772   1.404       .  A
C1771     Br1778   1.931       .  S
C1772      C1773   1.408       .  A
C1772     Br1777   1.910       .  S
C1773      C1774   1.412       .  A
C1774     Br1775   1.928       .  S
C1779      C1780   1.422       .  A
C1779      C1784   1.414       .  A
C1779     Br1786   1.908       .  S
C1780      C1781   1.426       .  A
C1781      C1782   1.411       .  A
C1781     Br1788   1.913       .  S
C1782      C1783   1.397       .  A
C1782     Br1787   1.934       .  S
C1783      C1784   1.406       .  A
C1784     Br1785   1.935       .  S
C1789      C1790   1.425       .  A
C1789      C1794   1.416       .  A
C1789     Br1796   1.905       .  S
C1790      C1791   1.428       .  A
C1791      C1792   1.422       .  A
C1791     Br1798   1.922       .  S
C1792      C1793   1.406       .  A
C1792     Br1797   1.930       .  S
C1793      C1794   1.406       .  A
C1794     Br1795   1.938       .  S
C1799      C1800   1.425       .  A
C1799      C1804   1.411       .  A
C1799     Br1806   1.914       .  S
C1800      C1801   1.425       .  A
C1801      C1802   1.414       .  A
C1801     Br1808   1.906       .  S
C1802      C1803   1.403       .  A
C1802     Br1807   1.934       .  S
C1803      C1804   1.398       .  A
C1804     Br1805   1.934       .  S
C1809      C1810   1.406       .  A
C1809      C1814   1.401       .  A
C1809     Br1816   1.935       .  S
C1810      C1811   1.404       .  A
C1811      C1812   1.418       .  A
C1811     Br1818   1.927       .  S
C1812      C1813   1.428       .  A
C1812     Br1817   1.925       .  S
C1813      C1814   1.414       .  A
C1814     Br1815   1.928   1_565  S
C1819      C1820   1.415       .  A
C1819      C1824   1.412       .  A
C1819     Br1826   1.934       .  S
C1820      C1821   1.438       .  A
C1821      C1822   1.409       .  A
C1821     Br1828   1.926       .  S
C1822      C1823   1.394       .  A
C1822     Br1827   1.934   1_565  S
C1823      C1824   1.409       .  A
C1824     Br1825   1.910       .  S
C1829      C1830   1.402       .  A
C1829      C1834   1.420       .  A
C1829     Br1836   1.934       .  S
C1830      C1831   1.406       .  A
C1831      C1832   1.420       .  A
C1831     Br1838   1.932       .  S
C1832      C1833   1.426       .  A
C1832     Br1837   1.923       .  S
C1833      C1834   1.430       .  A
C1834     Br1835   1.904       .  S
C1839      C1840   1.406       .  A
C1839      C1844   1.410       .  A
C1839     Br1846   1.936       .  S
C1840      C1841   1.409       .  A
C1841      C1842   1.406       .  A
C1841     Br1848   1.935       .  S
C1842      C1843   1.419       .  A
C1842     Br1847   1.933       .  S
C1843      C1844   1.432       .  A
C1844     Br1845   1.939   1_556  S
C1849      C1850   1.413       .  A
C1849      C1854   1.412       .  A
C1849     Br1856   1.933       .  S
C1850      C1851   1.426       .  A
C1851      C1852   1.406       .  A
C1851     Br1858   1.934       .  S
C1852      C1853   1.400       .  A
C1852     Br1857   1.925   1_556  S
C1853      C1854   1.419       .  A
C1854     Br1855   1.925       .  S
C1859      C1860   1.427       .  A
C1859      C1864   1.418       .  A
C1859     Br1866   1.922       .  S
C1860      C1861   1.426       .  A
C1861      C1862   1.416       .  A
C1861     Br1868   1.905       .  S
C1862      C1863   1.403       .  A
C1862     Br1867   1.936       .  S
C1863      C1864   1.403       .  A
C1864     Br1865   1.930       .  S
C1869      C1870   1.420       .  A
C1869      C1874   1.410       .  A
C1869     Br1876   1.934       .  S
C1870      C1871   1.421       .  A
C1871      C1872   1.413       .  A
C1871     Br1878   1.933       .  S
C1872      C1873   1.409       .  A
C1872     Br1877   1.932       .  S
C1873      C1874   1.406       .  A
C1874     Br1875   1.930       .  S
C1879      C1880   1.407       .  A
C1879      C1884   1.387       .  A
C1879     Br1886   1.903       .  S
C1880      C1881   1.415       .  A
C1881      C1882   1.418       .  A
C1881     Br1888   1.929       .  S
C1882      C1883   1.424       .  A
C1882     Br1887   1.932       .  S
C1883      C1884   1.408       .  A
C1884     Br1885   1.933       .  S
C1889      C1890   1.406       .  A
C1889      C1894   1.402       .  A
C1889     Br1896   1.933       .  S
C1890      C1891   1.406       .  A
C1891      C1892   1.414       .  A
C1891     Br1898   1.928       .  S
C1892      C1893   1.421       .  A
C1892     Br1897   1.932       .  S
C1893      C1894   1.420       .  A
C1894     Br1895   1.934       .  S
C1899      C1900   1.397       .  A
C1899      C1904   1.411       .  A
C1899     Br1906   1.931       .  S
C1900      C1901   1.404       .  A
C1901      C1902   1.408       .  A
C1901     Br1908   1.937       .  S
C1902      C1903   1.421       .  A
C1902     Br1907   1.907       .  S
C1903      C1904   1.426       .  A
C1904     Br1905   1.915       .  S
C1909      C1910   1.398       .  A
C1909      C1914   1.401       .  A
C1909     Br1916   1.932       .  S
C1910      C1911   1.404       .  A
C1911      C1912   1.404       .  A
C1911     Br1918   1.935       .  S
C1912      C1913   1.421       .  A
C1912     Br1917   1.933       .  S
C1913      C1914   1.428       .  A
C1914     Br1915   1.942       .  S
C1919      C1920   1.414       .  A
C1919      C1924   1.387       .  A
C1919     Br1926   1.929       .  S
C1920      C1921   1.430       .  A
C1921      C1922   1.412       .  A
C1921     Br1928   1.931       .  S
C1922      C1923   1.400       .  A
C1922     Br1927   1.925       .  S
C1923      C1924   1.396       .  A
C1924     Br1925   1.905       .  S
C1929      C1930   1.402       .  A
C1929      C1934   1.414       .  A
C1929     Br1936   1.933       .  S
C1930      C1931   1.405       .  A
C1931      C1932   1.415       .  A
C1931     Br1938   1.929       .  S
C1932      C1933   1.424       .  A
C1932     Br1937   1.911       .  S
C1933      C1934   1.425       .  A
C1934     Br1935   1.920       .  S
C1939      C1940   1.408       .  A
C1939      C1944   1.411       .  A
C1939     Br1946   1.933       .  S
C1940      C1941   1.416       .  A
C1941      C1942   1.405       .  A
C1941     Br1948   1.933       .  S
C1942      C1943   1.404       .  A
C1942     Br1947   1.916       .  S
C1943      C1944   1.420       .  A
C1944     Br1945   1.923       .  S
C1949      C1950   1.404       .  A
C1949      C1954   1.401       .  A
C1949     Br1956   1.932       .  S
C1950      C1951   1.410       .  A
C1951      C1952   1.417       .  A
C1951     Br1958   1.926       .  S
C1952      C1953   1.413       .  A
C1952     Br1957   1.919   1_565  S
C1953      C1954   1.415       .  A
C1954     Br1955   1.915       .  S
C1959      C1960   1.408       .  A
C1959      C1964   1.410       .  A
C1959     Br1966   1.935       .  S
C1960      C1961   1.421       .  A
C1961      C1962   1.404       .  A
C1961     Br1968   1.940       .  S
C1962      C1963   1.417       .  A
C1962     Br1967   1.939       .  S
C1963      C1964   1.433       .  A
C1964     Br1965   1.941       .  S
C1969      C1970   1.409       .  A
C1969      C1974   1.403       .  A
C1969     Br1976   1.932       .  S
C1970      C1971   1.405       .  A
C1971      C1972   1.409       .  A
C1971     Br1978   1.932       .  S
C1972      C1973   1.423       .  A
C1972     Br1977   1.933   1_556  S
C1973      C1974   1.421       .  A
C1974     Br1975   1.943       .  S
C1979      C1980   1.403       .  A
C1979      C1984   1.410       .  A
C1979     Br1986   1.931       .  S
C1980      C1981   1.407       .  A
C1981      C1982   1.412       .  A
C1981     Br1988   1.931       .  S
C1982      C1983   1.419       .  A
C1982     Br1987   1.921       .  S
C1983      C1984   1.422       .  A
C1984     Br1985   1.928       .  S
C1989      C1990   1.416       .  A
C1989      C1994   1.399       .  A
C1989     Br1996   1.934       .  S
C1990      C1991   1.421       .  A
C1991      C1992   1.416       .  A
C1991     Br1998   1.930       .  S
C1992      C1993   1.410       .  A
C1992     Br1997   1.928   1_655  S
C1993      C1994   1.408       .  A
C1994     Br1995   1.917       .  S
C1999      C2000   1.415       .  A
C1999      C2004   1.410       .  A
C1999     Br2006   1.934       .  S
C2000      C2001   1.416       .  A
C2001      C2002   1.405       .  A
C2001     Br2008   1.934       .  S
C2002      C2003   1.404       .  A
C2002     Br2007   1.916       .  S
C2003      C2004   1.412       .  A
C2004     Br2005   1.924   1_556  S
C2009      C2010   1.405       .  A
C2009      C2014   1.397       .  A
C2009     Br2016   1.941       .  S
C2010      C2011   1.410       .  A
C2011      C2012   1.414       .  A
C2011     Br2018   1.927       .  S
C2012      C2013   1.412       .  A
C2012     Br2017   1.924   1_565  S
C2013      C2014   1.419       .  A
C2014     Br2015   1.917       .  S
C2019      C2020   1.402       .  A
C2019      C2024   1.405       .  A
C2019     Br2026   1.923       .  S
C2020      C2021   1.416       .  A
C2021      C2022   1.406       .  A
C2021     Br2028   1.931       .  S
C2022      C2023   1.407       .  A
C2022     Br2027   1.933       .  S
C2023      C2024   1.416       .  A
C2024     Br2025   1.931       .  S
C2029      C2030   1.404       .  A
C2029      C2034   1.416       .  A
C2029     Br2036   1.930       .  S
C2030      C2031   1.403       .  A
C2031      C2032   1.412       .  A
C2031     Br2038   1.929       .  S
C2032      C2033   1.424       .  A
C2032     Br2037   1.911       .  S
C2033      C2034   1.426       .  A
C2034     Br2035   1.925       .  S
C2039      C2040   1.407       .  A
C2039      C2044   1.405       .  A
C2039     Br2046   1.935       .  S
C2040      C2041   1.410       .  A
C2041      C2042   1.418       .  A
C2041     Br2048   1.928       .  S
C2042      C2043   1.419       .  A
C2042     Br2047   1.928   1_565  S
C2043      C2044   1.419       .  A
C2044     Br2045   1.927       .  S
C2049      C2050   1.409       .  A
C2049      C2054   1.417       .  A
C2049     Br2056   1.928       .  S
C2050      C2051   1.406       .  A
C2051      C2052   1.407       .  A
C2051     Br2058   1.929       .  S
C2052      C2053   1.421       .  A
C2052     Br2057   1.920       .  S
C2053      C2054   1.417       .  A
C2054     Br2055   1.923       .  S
C2059      C2060   1.418       .  A
C2059      C2064   1.418       .  A
C2059     Br2066   1.928       .  S
C2060      C2061   1.410       .  A
C2061      C2062   1.401       .  A
C2061     Br2068   1.936       .  S
C2062      C2063   1.416       .  A
C2062     Br2067   1.919       .  S
C2063      C2064   1.410       .  A
C2064     Br2065   1.926       .  S
C2069      C2070   1.409       .  A
C2069      C2074   1.410       .  A
C2069     Br2076   1.936       .  S
C2070      C2071   1.404       .  A
C2071      C2072   1.409       .  A
C2071     Br2078   1.931       .  S
C2072      C2073   1.418       .  A
C2072     Br2077   1.918       .  S
C2073      C2074   1.425       .  A
C2074     Br2075   1.938   1_565  S
C2079      C2080   1.403       .  A
C2079      C2084   1.416       .  A
C2079     Br2086   1.930       .  S
C2080      C2081   1.406       .  A
C2081      C2082   1.413       .  A
C2081     Br2088   1.935       .  S
C2082      C2083   1.424       .  A
C2082     Br2087   1.912       .  S
C2083      C2084   1.426       .  A
C2084     Br2085   1.923       .  S
C2089      C2090   1.414       .  A
C2089      C2094   1.409       .  A
C2089     Br2096   1.932       .  S
C2090      C2091   1.411       .  A
C2091      C2092   1.406       .  A
C2091     Br2098   1.941       .  S
C2092      C2093   1.432       .  A
C2092     Br2097   1.948       .  S
C2093      C2094   1.414       .  A
C2094     Br2095   1.932       .  S
C2099      C2100   1.405       .  A
C2099      C2104   1.409       .  A
C2099     Br2106   1.930       .  S
C2100      C2101   1.410       .  A
C2101      C2102   1.399       .  A
C2101     Br2108   1.935       .  S
C2102      C2103   1.407       .  A
C2102     Br2107   1.925   1_655  S
C2103      C2104   1.420       .  A
C2104     Br2105   1.933       .  S
C2109      C2110   1.400       .  A
C2109      C2114   1.411       .  A
C2109     Br2116   1.934       .  S
C2110      C2111   1.409       .  A
C2111      C2112   1.417       .  A
C2111     Br2118   1.935       .  S
C2112      C2113   1.424       .  A
C2112     Br2117   1.912       .  S
C2113      C2114   1.426       .  A
C2114     Br2115   1.915       .  S
C2119      C2120   1.408       .  A
C2119      C2124   1.404   1_556  A
C2119     Br2126   1.932       .  S
C2120      C2121   1.405       .  A
C2121      C2122   1.409       .  A
C2121     Br2128   1.930       .  S
C2122      C2123   1.419       .  A
C2122     Br2127   1.932       .  S
C2123      C2124   1.413   1_556  A
C2124     Br2125   1.929       .  S
C2129      C2130   1.411       .  A
C2129      C2134   1.414       .  A
C2129     Br2136   1.928       .  S
C2130      C2131   1.405       .  A
C2131      C2132   1.403       .  A
C2131     Br2138   1.932       .  S
C2132      C2133   1.415       .  A
C2132     Br2137   1.910       .  S
C2133      C2134   1.414       .  A
C2134     Br2135   1.926       .  S
C2139      C2140   1.403       .  A
C2139      C2144   1.416       .  A
C2139     Br2146   1.930       .  S
C2140      C2141   1.401       .  A
C2141      C2142   1.410       .  A
C2141     Br2148   1.932       .  S
C2142      C2143   1.426       .  A
C2142     Br2147   1.910       .  S
C2143      C2144   1.426       .  A
C2144     Br2145   1.928       .  S
C2149      C2150   1.425       .  A
C2149      C2154   1.408       .  A
C2149     Br2156   1.910       .  S
C2150      C2151   1.421       .  A
C2151      C2152   1.415       .  A
C2151     Br2158   1.909       .  S
C2152      C2153   1.408       .  A
C2152     Br2157   1.932       .  S
C2153      C2154   1.398       .  A
C2154     Br2155   1.937       .  S
C2159      C2160   1.426       .  A
C2159      C2164   1.414       .  A
C2159     Br2166   1.905       .  S
C2160      C2161   1.426       .  A
C2161      C2162   1.413       .  A
C2161     Br2168   1.918       .  S
C2162      C2163   1.402       .  A
C2162     Br2167   1.935       .  S
C2163      C2164   1.401       .  A
C2164     Br2165   1.930       .  S
C2169      C2170   1.425       .  A
C2169      C2174   1.417       .  A
C2169     Br2176   1.908       .  S
C2170      C2171   1.429       .  A
C2171      C2172   1.417       .  A
C2171     Br2178   1.916       .  S
C2172      C2173   1.402       .  A
C2172     Br2177   1.933       .  S
C2173      C2174   1.406       .  A
C2174     Br2175   1.933       .  S
C2179      C2180   1.416       .  A
C2179      C2184   1.417       .  A
C2179     Br2186   1.926       .  S
C2180      C2181   1.407       .  A
C2181      C2182   1.401       .  A
C2181     Br2188   1.931       .  S
C2182      C2183   1.415       .  A
C2182     Br2187   1.922       .  S
C2183      C2184   1.407       .  A
C2184     Br2185   1.924       .  S
C2189      C2190   1.410       .  A
C2189      C2194   1.418       .  A
C2189     Br2196   1.925       .  S
C2190      C2191   1.401       .  A
C2191      C2192   1.397       .  A
C2191     Br2198   1.933       .  S
C2192      C2193   1.415       .  A
C2192     Br2197   1.907       .  S
C2193      C2194   1.413       .  A
C2194     Br2195   1.923       .  S
C2199      C2200   1.401       .  A
C2199      C2204   1.414       .  A
C2199     Br2206   1.934       .  S
C2200      C2201   1.409       .  A
C2201      C2202   1.415       .  A
C2201     Br2208   1.923       .  S
C2202      C2203   1.420       .  A
C2202     Br2207   1.911       .  S
C2203      C2204   1.426       .  A
C2204     Br2205   1.914       .  S
C2209      C2210   1.412       .  A
C2209      C2214   1.398       .  A
C2209     Br2216   1.932       .  S
C2210      C2211   1.419       .  A
C2211      C2212   1.411       .  A
C2211     Br2218   1.922       .  S
C2212      C2213   1.405       .  A
C2212     Br2217   1.929       .  S
C2213      C2214   1.416       .  A
C2214     Br2215   1.927       .  S
C2219      C2220   1.407       .  A
C2219      C2224   1.390       .  A
C2219     Br2226   1.911       .  S
C2220      C2221   1.411       .  A
C2221      C2222   1.415       .  A
C2221     Br2228   1.931       .  S
C2222      C2223   1.423       .  A
C2222     Br2227   1.922       .  S
C2223      C2224   1.411       .  A
C2224     Br2225   1.932       .  S
C2229      C2230   1.399       .  A
C2229      C2234   1.416       .  A
C2229     Br2236   1.930       .  S
C2230      C2231   1.407       .  A
C2231      C2232   1.410       .  A
C2231     Br2238   1.935       .  S
C2232      C2233   1.420       .  A
C2232     Br2237   1.909       .  S
C2233      C2234   1.429       .  A
C2234     Br2235   1.916       .  S
C2239      C2240   1.402       .  A
C2239      C2244   1.406       .  A
C2239     Br2246   1.933       .  S
C2240      C2241   1.404       .  A
C2241      C2242   1.398       .  A
C2241     Br2248   1.928       .  S
C2242      C2243   1.421       .  A
C2242     Br2247   1.944   1_556  S
C2243      C2244   1.424       .  A
C2244     Br2245   1.931       .  S
C2249      C2250   1.402       .  A
C2249      C2254   1.400       .  A
C2249     Br2256   1.931       .  S
C2250      C2251   1.405       .  A
C2251      C2252   1.412       .  A
C2251     Br2258   1.934       .  S
C2252      C2253   1.427       .  A
C2252     Br2257   1.934       .  S
C2253      C2254   1.433       .  A
C2254     Br2255   1.944   1_556  S
C2259      C2260   1.402       .  A
C2259      C2264   1.405       .  A
C2259     Br2266   1.926       .  S
C2260      C2261   1.401       .  A
C2261      C2262   1.412       .  A
C2261     Br2268   1.931       .  S
C2262      C2263   1.424       .  A
C2262     Br2267   1.921       .  S
C2263      C2264   1.420       .  A
C2264     Br2265   1.906       .  S
