geometry optimzed in LAMMPS
_audit_creation_date              2020-11-30 
_audit_creation_method            'lammps2cif' 
_symmetry_space_group_name_H-M    'P1' 
_symmetry_Int_Tables_number       1 
_symmetry_cell_setting            triclinic 
loop_ 
_symmetry_equiv_pos_as_xyz 
  x,y,z 
_cell_length_a                    37.10653723674649 
_cell_length_b                    39.31259796975595 
_cell_length_c                    39.35497284158912 
_cell_angle_alpha                 90.00848659192664 
_cell_angle_beta                  88.54030659273619 
_cell_angle_gamma                 89.2515156673884 
loop_ 
_atom_site_label 
_atom_site_type_symbol 
_atom_site_fract_x 
_atom_site_fract_y 
_atom_site_fract_z 
_atom_site_charge 
O1          O  0.46302296  0.54610961  0.43432496    -0.80920
O2          O  0.57779789  0.47400587  0.52563277    -0.65610
O3          O  0.49380381  0.49403365  0.47102558    -1.12210
C4          C  0.46178096  0.55521266  0.57269593     1.05970
O5          O  0.53953557  0.45720743  0.56459705    -0.78810
O6          O  0.46707419  0.45906638  0.56339717    -0.66400
Ni7        Ni  0.50261373  0.51526938  0.42763373     1.34870
C8          C  0.44202207  0.45842013  0.54172843     0.84710
O9          O  0.55349888  0.45151874  0.46057881    -0.79350
O10         O  0.53883963  0.48176105  0.41477360    -0.89630
C11         C  0.57161330  0.46499885  0.55638975     0.84280
O12         O  0.53665162  0.55058077  0.44281891    -0.67830
O13         O  0.47237007  0.52804061  0.58741455    -0.87120
C14         C  0.56330553  0.54906929  0.46303712     0.85110
C15         C  0.54803075  0.45357958  0.42834864     1.06680
H16         H  0.52590705  0.53268050  0.53276648     0.38480
O17         O  0.51251380  0.51198832  0.52997335    -1.09780
O18         O  0.43926317  0.48270446  0.52013106    -0.66430
Ni19       Ni  0.46952519  0.52211323  0.50506516     1.26350
O20         O  0.56765774  0.52229573  0.48126583    -0.66660
O21         O  0.45291612  0.55501387  0.54094868    -0.78950
C22         C  0.43206671  0.53605056  0.44429257     0.84490
O23         O  0.42758989  0.52972520  0.47602069    -0.66130
Ni24       Ni  0.50469348  0.49180452  0.57392227     1.27450
Ni25       Ni  0.53654781  0.48352787  0.49624737     1.26060
H26         H  0.48044027  0.47341745  0.46764528     0.39040
O27         O  0.48559444  0.20783334  0.16389317    -0.80920
O28         O  0.54341436  0.31788392  0.27420803    -0.65610
O29         O  0.52994645  0.23935619  0.21315726    -1.12210
C30         C  0.46386324  0.20371779  0.30792049     1.05970
O31         O  0.54978526  0.28668324  0.32067867    -0.78810
O32         O  0.56642216  0.22026580  0.29510493    -0.66400
Ni33       Ni  0.50989285  0.25094643  0.16996963     1.34870
C34         C  0.56525578  0.19357278  0.27624079     0.84710
O35         O  0.57481664  0.29535142  0.20913363    -0.79350
O36         O  0.53714308  0.29174228  0.16765636    -0.89630
C37         C  0.54549788  0.31575109  0.30685881     0.84280
O38         O  0.46789618  0.27484915  0.19164852    -0.67830
O39         O  0.49618249  0.20435991  0.31779302    -0.87120
C40         C  0.46910853  0.30193103  0.21000931     0.85110
C41         C  0.56958124  0.29312204  0.17707424     1.06680
H42         H  0.48291233  0.26966809  0.27548559     0.38480
O43         O  0.50490817  0.25650452  0.27220610    -1.09780
O44         O  0.53624073  0.18719628  0.26037711    -0.66430
Ni45       Ni  0.49658448  0.21708344  0.24332190     1.26350
O46         O  0.49829782  0.30873173  0.22526439    -0.66660
O47         O  0.45914589  0.20153931  0.27588642    -0.78950
C48         C  0.48710063  0.17919962  0.17919185     0.84490
O49         O  0.49024873  0.17825456  0.21175158    -0.66130
Ni50       Ni  0.52430088  0.24462017  0.31555929     1.27450
Ni51       Ni  0.53802588  0.27907647  0.24211018     1.26060
H52         H  0.55191335  0.22617279  0.20989913     0.39040
C53         C  0.78812016  0.75089903  0.78531018     0.03100
C54         C  0.81297637  0.76924339  0.76532668    -0.13050
C55         C  0.80213821  0.79939194  0.74941043     0.00600
C56         C  0.76782085  0.81262508  0.75626638    -0.11570
C57         C  0.74530649  0.79702111  0.77995682     0.03100
C58         C  0.75401191  0.76501294  0.79255845    -0.10990
H59         H  0.84004135  0.75933686  0.76082509     0.08690
H60         H  0.75894121  0.83588740  0.74419479     0.06220
H61         H  0.73494562  0.75204725  0.80917775     0.06070
C62         C  0.73886086  0.99597276  0.97115935     0.03100
C63         C  0.74719540  0.97314234  0.99720104    -0.13050
C64         C  0.77520855  0.98029316  0.01892695     0.00600
C65         C  0.79767608  0.00784146  0.01215465    -0.11570
C66         C  0.78976516  0.02981884  0.98565256     0.03100
C67         C  0.76061648  0.02389830  0.96500480    -0.10990
H68         H  0.73082467  0.95093019  0.00168468     0.08690
H69         H  0.82038071  0.01285552  0.02811882     0.06220
H70         H  0.75433333  0.04159692  0.94477832     0.06070
C71         C  0.98219892  0.73573724  0.97644693     0.03100
C72         C  0.00570503  0.75689245  0.95904237    -0.13050
C73         C  0.00344764  0.79161301  0.96432776     0.00600
C74         C  0.98125116  0.80482594  0.99026053    -0.11570
C75         C  0.96116327  0.78270663  0.01075445     0.03100
C76         C  0.96104098  0.74802890  0.00355378    -0.10990
H77         H  0.02366534  0.74643433  0.93939266     0.08690
H78         H  0.98177030  0.83178123  0.99611150     0.06220
H79         H  0.94315385  0.73124768  0.01762900     0.06070
C80         C  0.96124354  0.96773033  0.76154194     0.03100
C81         C  0.94395162  0.99634154  0.77500564    -0.13050
C82         C  0.95889374  0.01279027  0.80244024     0.00600
C83         C  0.98842261  0.99833347  0.81883625    -0.11570
C84         C  0.00793937  0.97167093  0.80314664     0.03100
C85         C  0.99445817  0.95761803  0.77343476    -0.10990
H86         H  0.92054101  0.00703434  0.76272715     0.08690
H87         H  0.99547511  0.00822918  0.84314163     0.06220
H88         H  0.00985208  0.93859298  0.75908075     0.06070
O89         O  0.14263114  0.83519128  0.88088812    -0.74450
O90         O  0.22136599  0.87787566  0.83441550    -0.74480
O91         O  0.21310936  0.82919144  0.88787365    -0.74540
O92         O  0.15110251  0.87989615  0.83105092    -0.74590
O93         O  0.14922166  0.92122176  0.86994388    -0.74520
O94         O  0.21230535  0.87035103  0.92654275    -0.74500
O95         O  0.21916089  0.92095264  0.87081938    -0.74470
O96         O  0.14232044  0.87687667  0.91938777    -0.74540
Ni97       Ni  0.18305783  0.85390343  0.85726096     1.25410
Ni98       Ni  0.18187555  0.89888368  0.89823134     1.25360
C99         C  0.12864939  0.85012137  0.90699767     0.87730
C100        C  0.22527711  0.90974706  0.84044758     0.87660
C101        C  0.21512899  0.83850870  0.91903773     0.87690
C102        C  0.13820845  0.90786559  0.84252540     0.87860
O103        O  0.91430685  0.87523147  0.13524806    -0.74450
O104        O  0.86693408  0.93325243  0.20084778    -0.74480
O105        O  0.92420220  0.88232031  0.20072528    -0.74540
O106        O  0.86135583  0.92208248  0.13521774    -0.74590
O107        O  0.82021799  0.88235819  0.14625589    -0.74520
O108        O  0.88493154  0.84095230  0.20983256    -0.74500
O109        O  0.82692689  0.89309129  0.21230011    -0.74470
O110        O  0.87329848  0.83525634  0.14470335    -0.74540
Ni111      Ni  0.89319750  0.90473577  0.16836475     1.25410
Ni112      Ni  0.84989850  0.86153117  0.17955509     1.25360
C113        C  0.90145831  0.84603216  0.12899435     0.87730
C114        C  0.83516111  0.92490068  0.21131529     0.87660
C115        C  0.91762910  0.85163987  0.21029388     0.87690
C116        C  0.83105096  0.90836105  0.12960211     0.87860
O117        O  0.84823267  0.88316907  0.61692391    -0.74450
O118        O  0.90575912  0.93787388  0.55488414    -0.74480
O119        O  0.84810573  0.88623728  0.54970847    -0.74540
O120        O  0.89817698  0.92982718  0.62110878    -0.74590
O121        O  0.94149686  0.88980220  0.61830727    -0.74520
O122        O  0.88723156  0.84327553  0.54942454    -0.74500
O123        O  0.94607213  0.89605049  0.55040324    -0.74470
O124        O  0.89149063  0.84320828  0.61545953    -0.74540
Ni125      Ni  0.87358681  0.91078237  0.58458456     1.25410
Ni126      Ni  0.91832616  0.86673582  0.58200227     1.25360
C127        C  0.86233577  0.85559078  0.62822323     0.87730
C128        C  0.93875338  0.92823197  0.54863238     0.87660
C129        C  0.85464931  0.85426162  0.54472487     0.87690
C130        C  0.92616987  0.91552709  0.63290733     0.87860
O131        O  0.87487544  0.62141723  0.83512602    -0.74450
O132        O  0.93016976  0.55126032  0.87886948    -0.74480
O133        O  0.86901338  0.55561748  0.83124387    -0.74540
O134        O  0.93055754  0.61739866  0.87671737    -0.74590
O135        O  0.89141864  0.61971446  0.92093127    -0.74520
O136        O  0.83138918  0.55592241  0.87583956    -0.74500
O137        O  0.89304265  0.55387032  0.92379640    -0.74470
O138        O  0.83579734  0.62169644  0.87895741    -0.74540
Ni139      Ni  0.90255083  0.58536748  0.85385257     1.25410
Ni140      Ni  0.86143079  0.58679902  0.90153089     1.25360
C141        C  0.84648131  0.63337282  0.85028064     0.87730
C142        C  0.92512358  0.54834753  0.91141758     0.87660
C143        C  0.83651399  0.55333849  0.84326804     0.87690
C144        C  0.92027347  0.62920625  0.90554024     0.87860
O145        O  0.62535361  0.86599119  0.86699787    -0.74450
O146        O  0.55186445  0.90744044  0.92291968    -0.74480
O147        O  0.55679948  0.85222535  0.87237329    -0.74540
O148        O  0.62035613  0.91636042  0.91205742    -0.74590
O149        O  0.60860645  0.95371510  0.87082554    -0.74520
O150        O  0.54811245  0.88718136  0.82901365    -0.74500
O151        O  0.53956279  0.94215505  0.88024013    -0.74470
O152        O  0.61650419  0.90343015  0.82524206    -0.74540
Ni153      Ni  0.58811024  0.88396584  0.89508205     1.25410
Ni154      Ni  0.57672674  0.92289057  0.84983823     1.25360
C155        C  0.63380465  0.87843389  0.83793935     0.87730
C156        C  0.54066959  0.93659284  0.91263514     0.87660
C157        C  0.54926118  0.85656905  0.84076959     0.87690
C158        C  0.62498259  0.94522901  0.89776366     0.87860
O159        O  0.88081174  0.15338485  0.84832213    -0.74450
O160        O  0.84392600  0.22492741  0.90387278    -0.74480
O161        O  0.89271053  0.21815318  0.84323126    -0.74540
O162        O  0.84066909  0.15729316  0.90475214    -0.74590
O163        O  0.89046964  0.15344868  0.93495911    -0.74520
O164        O  0.93784566  0.21897099  0.87898767    -0.74500
O165        O  0.88942241  0.21996854  0.93895306    -0.74470
O166        O  0.93112637  0.15162896  0.87818845    -0.74540
Ni167      Ni  0.86263843  0.18976599  0.87389548     1.25410
Ni168      Ni  0.91415383  0.18682173  0.90889363     1.25360
C169        C  0.91070466  0.13959072  0.85522669     0.87730
C170        C  0.85568011  0.22645039  0.93423504     0.87660
C171        C  0.92686368  0.22160654  0.84845009     0.87690
C172        C  0.85924452  0.14318844  0.92820051     0.87860
O173        O  0.22240952  0.41033093  0.29723589    -0.80920
O174        O  0.28780976  0.52416827  0.19708232    -0.65610
O175        O  0.26934242  0.46020377  0.27194820    -1.12210
C176        C  0.19337999  0.54900470  0.30949852     1.05970
O177        O  0.27942915  0.57197341  0.22688241    -0.78810
O178        O  0.29665834  0.54420896  0.29094903    -0.66400
Ni179      Ni  0.25395354  0.41608647  0.25809544     1.34870
C180        C  0.29510689  0.52557313  0.31766786     0.84710
O181        O  0.32144313  0.46031114  0.21978991    -0.79350
O182        O  0.28813839  0.41452707  0.22051995    -0.89630
C183        C  0.28458793  0.55691561  0.19867014     0.84280
O184        O  0.21456860  0.43528265  0.23090415    -0.67830
O185        O  0.22528810  0.55984129  0.30892839    -0.87120
C186        C  0.21749660  0.45521377  0.20521032     0.85110
C187        C  0.31948336  0.42745228  0.22011459     1.06680
H188        H  0.22004039  0.51826779  0.24024791     0.38480
O189        O  0.24076168  0.51711408  0.25462647    -1.09780
O190        O  0.26720404  0.50750715  0.32394938    -0.66430
Ni191      Ni  0.23155953  0.48715655  0.29343878     1.26350
O192        O  0.24645010  0.47198174  0.20070868    -0.66660
O193        O  0.19003444  0.51652852  0.30917315    -0.78950
C194        C  0.22614151  0.42184725  0.32721306     0.84490
O195        O  0.22649003  0.45427745  0.33148152    -0.66130
Ni196      Ni  0.25402876  0.56191421  0.26837711     1.27450
Ni197      Ni  0.27993607  0.49057486  0.23412767     1.26060
H198        H  0.28996685  0.45801844  0.28633315     0.39040
O199        O  0.16820874  0.27042506  0.54427086    -0.80920
O200        O  0.29847659  0.22120973  0.44115322    -0.65610
O201        O  0.22887833  0.23558380  0.51678233    -1.12210
C202        C  0.31765324  0.31251398  0.54690557     1.05970
O203        O  0.34803100  0.22629541  0.47152787    -0.78810
O204        O  0.31967688  0.21311621  0.53663406    -0.66400
Ni205      Ni  0.18158936  0.24813701  0.50245966     1.34870
C206        C  0.29823578  0.21309619  0.56269910     0.84710
O207        O  0.23300826  0.18859228  0.46372603    -0.79350
O208        O  0.18690580  0.22231463  0.46209692    -0.89630
C209        C  0.33308962  0.22159700  0.44329815     0.84280
O210        O  0.20130338  0.28874347  0.48011400    -0.67830
O211        O  0.33205565  0.28323025  0.54888092    -0.87120
C212        C  0.22154430  0.28755158  0.45316247     0.85110
C213        C  0.19877511  0.19216314  0.46275374     1.06680
H214        H  0.28873398  0.28368222  0.48319905     0.38480
O215        O  0.28808078  0.26410238  0.49802109    -1.09780
O216        O  0.27740398  0.23916554  0.56846519    -0.66430
Ni217      Ni  0.25467978  0.27256536  0.53636466     1.26350
O218        O  0.24064821  0.26081547  0.44665370    -0.66660
O219        O  0.28299298  0.31342643  0.54911428    -0.78950
C220        C  0.18308073  0.27617071  0.57232796     0.84490
O221        O  0.21770722  0.27923935  0.57364808    -0.66130
Ni222      Ni  0.33610983  0.25311953  0.51098843     1.27450
Ni223      Ni  0.26225120  0.22747336  0.47836989     1.26060
H224        H  0.22785224  0.21601382  0.53162945     0.39040
O225        O  0.48653578  0.72006053  0.67509150    -0.80920
O226        O  0.54367943  0.82718635  0.78506672    -0.65610
O227        O  0.53114626  0.74893502  0.72441814    -1.12210
C228        C  0.45743071  0.71283268  0.81742871     1.05970
O229        O  0.54798057  0.79611002  0.83193719    -0.78810
O230        O  0.56132877  0.72778577  0.81094127    -0.66400
Ni231      Ni  0.51540229  0.75984655  0.67942352     1.34870
C232        C  0.56102651  0.70153875  0.79143572     0.84710
O233        O  0.57911319  0.80319417  0.72100000    -0.79350
O234        O  0.54629869  0.79826435  0.67585157    -0.89630
C235        C  0.54534742  0.82522754  0.81780087     0.84280
O236        O  0.47390308  0.78745146  0.69539487    -0.67830
O237        O  0.48798502  0.71676830  0.83083401    -0.87120
C238        C  0.47436441  0.81445077  0.71355651     0.85110
C239        C  0.57742390  0.80046212  0.68830285     1.06680
H240        H  0.48178622  0.78082250  0.78380354     0.38480
O241        O  0.50355535  0.76710229  0.78208773    -1.09780
O242        O  0.53375907  0.69679927  0.77252696    -0.66430
Ni243      Ni  0.49564548  0.72759300  0.75369898     1.26350
O244        O  0.50131034  0.81959071  0.73282777    -0.66660
O245        O  0.45623546  0.71219496  0.78481747    -0.78950
C246        C  0.48662688  0.69131453  0.68983065     0.84490
O247        O  0.48947265  0.68922254  0.72222973    -0.66130
Ni248      Ni  0.51942752  0.75554539  0.82705630     1.27450
Ni249      Ni  0.53898908  0.78864450  0.75275258     1.26060
H250        H  0.55291848  0.73521315  0.72281021     0.39040
O251        O  0.29169866  0.70948996  0.07211754    -0.80920
O252        O  0.21781648  0.81518357  0.97751621    -0.65610
O253        O  0.23557949  0.73568952  0.03464113    -1.12210
C254        C  0.30438758  0.70267724  0.93452124     1.05970
O255        O  0.20538658  0.78134868  0.93604928    -0.78810
O256        O  0.20112026  0.71429175  0.94703981    -0.66400
Ni257      Ni  0.25646330  0.74488298  0.07795926     1.34870
C258        C  0.20166907  0.68908281  0.96734101     0.84710
O259        O  0.18931620  0.79237800  0.04359828    -0.79350
O260        O  0.21989443  0.77814059  0.09017641    -0.89630
C261        C  0.21450202  0.81065749  0.94557049     0.84280
O262        O  0.29184833  0.77838080  0.06192053    -0.67830
O263        O  0.27489875  0.71030391  0.92021596    -0.87120
C264        C  0.28922630  0.80319585  0.04112379     0.85110
C265        C  0.19129477  0.78918334  0.07641305     1.06680
H266        H  0.27934573  0.76693542  0.97282966     0.38480
O267        O  0.25768709  0.75370802  0.97549527    -1.09780
O268        O  0.22893692  0.68407910  0.98607910    -0.66430
Ni269      Ni  0.26828735  0.71361102  0.00194802     1.26350
O270        O  0.26211327  0.80606960  0.02247184    -0.66660
O271        O  0.30492762  0.69834860  0.96717837    -0.78950
C272        C  0.28362976  0.67941524  0.06364654     0.84490
O273        O  0.27662613  0.67437940  0.03239759    -0.66130
Ni274      Ni  0.23909325  0.74508627  0.93124804     1.27450
Ni275      Ni  0.22450596  0.77571701  0.00791977     1.26060
H276        H  0.21407968  0.72238197  0.03807445     0.39040
O277        O  0.96607500  0.54305594  0.07233685    -0.80920
O278        O  0.05272985  0.43735221  0.98703109    -0.65610
O279        O  0.02452382  0.51916020  0.03704685    -1.12210
C280        C  0.95748070  0.54111616  0.93453537     1.05970
O281        O  0.06406479  0.47038821  0.94439555    -0.78810
O282        O  0.05981534  0.53794691  0.94689158    -0.66400
Ni283      Ni  0.00422796  0.51260613  0.08186760     1.34870
C284        C  0.05821848  0.56282891  0.96770296     0.84710
O285        O  0.07620723  0.46860170  0.04954102    -0.79350
O286        O  0.04461838  0.48497361  0.09617723    -0.89630
C287        C  0.05682660  0.44080667  0.95501983     0.84280
O288        O  0.97203334  0.47537359  0.07031724    -0.67830
O289        O  0.98662185  0.53016999  0.92001482    -0.87120
C290        C  0.97538029  0.45020269  0.04987848     0.85110
C291        C  0.07458342  0.47629353  0.08169866     1.06680
H292        H  0.98632453  0.48022343  0.97843119     0.38480
O293        O  0.00670116  0.49518202  0.97976414    -1.09780
O294        O  0.03028093  0.56688105  0.98682536    -0.66430
Ni295      Ni  0.99167292  0.53628942  0.00297498     1.26350
O296        O  0.00341606  0.44701231  0.03087487    -0.66660
O297        O  0.95642503  0.54792536  0.96689375    -0.78950
C298        C  0.97303769  0.57276729  0.06191395     0.84490
O299        O  0.97891318  0.57652959  0.03016456    -0.66130
Ni300      Ni  0.02657422  0.50162126  0.93478675     1.27450
Ni301      Ni  0.04027704  0.47842985  0.01371621     1.26060
H302        H  0.04483196  0.53413678  0.03884513     0.39040
O303        O  0.23716028  0.91816204  0.78182264    -0.80920
O304        O  0.29361543  0.03965428  0.68015392    -0.65610
O305        O  0.27632167  0.97326264  0.75470156    -1.12210
C306        C  0.19901695  0.06124757  0.79391927     1.05970
O307        O  0.29158115  0.08427243  0.71494137    -0.78810
O308        O  0.30272280  0.05483567  0.77949527    -0.66400
Ni309      Ni  0.26461487  0.92788413  0.74099685     1.34870
C310        C  0.29858698  0.03520062  0.80526943     0.84710
O311        O  0.32885498  0.97471475  0.70188710    -0.79350
O312        O  0.29559782  0.92968972  0.70165718    -0.89630
C313        C  0.29323329  0.07242303  0.68484046     0.84280
O314        O  0.22278335  0.94463831  0.71622640    -0.67830
O315        O  0.23087186  0.07240033  0.79386525    -0.87120
C316        C  0.22342016  0.96494314  0.69059762     0.85110
C317        C  0.32706499  0.94186571  0.70244504     1.06680
H318        H  0.22747667  0.03310849  0.72366720     0.38480
O319        O  0.24784662  0.03059787  0.73832623    -1.09780
O320        O  0.27000586  0.01771373  0.80878272    -0.66430
Ni321      Ni  0.23682839  0.99930433  0.77537365     1.26350
O322        O  0.25082055  0.98425634  0.68514172    -0.66660
O323        O  0.19538503  0.02885454  0.79087042    -0.78950
C324        C  0.23201482  0.93304923  0.81027662     0.84490
O325        O  0.22891049  0.96568006  0.81208621    -0.66130
Ni326      Ni  0.26235673  0.07427168  0.75457420     1.27450
Ni327      Ni  0.28639479  0.00425487  0.71680062     1.26060
H328        H  0.29674424  0.97226823  0.76943823     0.39040
O329        O  0.71762305  0.82212953  0.46518303    -0.80920
O330        O  0.79423970  0.73569982  0.57085357    -0.65610
O331        O  0.77385140  0.78558880  0.48835490    -1.12210
C332        C  0.70594715  0.68173366  0.46664904     1.05970
O333        O  0.80832291  0.69438092  0.53699261    -0.78810
O334        O  0.80831627  0.69393273  0.46875776    -0.66400
Ni335      Ni  0.75600717  0.83136212  0.49419361     1.34870
C336        C  0.80734428  0.71410441  0.44324411     0.84710
O337        O  0.82131192  0.79867588  0.54286312    -0.79350
O338        O  0.79666306  0.84569992  0.52056697    -0.89630
C339        C  0.79858363  0.70389286  0.56654697     0.84280
O340        O  0.72267302  0.82295785  0.53281987    -0.67830
O341        O  0.73523915  0.66793591  0.47656029    -0.87120
C342        C  0.72109323  0.80145866  0.55709586     0.85110
C343        C  0.82299484  0.83088192  0.53500260     1.06680
H344        H  0.73211048  0.72662501  0.52573940     0.38480
O345        O  0.75347157  0.72829191  0.51130425    -1.09780
O346        O  0.78017026  0.73411911  0.43965620    -0.66430
Ni347      Ni  0.74067374  0.75152336  0.47043982     1.26350
O348        O  0.74580921  0.77900588  0.55968256    -0.66660
O349        O  0.70481550  0.71436553  0.45949771    -0.78950
C350        C  0.72297241  0.81211548  0.43489501     0.84490
O351        O  0.72934150  0.78020355  0.43046894    -0.66130
Ni352      Ni  0.77324435  0.68330412  0.50544680     1.27450
Ni353      Ni  0.78578491  0.76257170  0.52988595     1.26060
H354        H  0.79529792  0.78642131  0.47394959     0.39040
O355        O  0.04623761  0.81561177  0.29820458    -0.80920
O356        O  0.97481857  0.73234902  0.18687448    -0.65610
O357        O  0.99097464  0.78255253  0.26975390    -1.12210
C358        C  0.05493200  0.67838166  0.29739772     1.05970
O359        O  0.95712222  0.69093719  0.21920766    -0.78810
O360        O  0.95477615  0.69027697  0.28785343    -0.66400
Ni361      Ni  0.01233628  0.82624580  0.26431430     1.34870
C362        C  0.95302644  0.71108560  0.31295886     0.84710
O363        O  0.94804871  0.79587200  0.21378406    -0.79350
O364        O  0.97611206  0.84205408  0.23305633    -0.89630
C365        C  0.96792108  0.70091878  0.19012089     0.84280
O366        O  0.04917375  0.81419807  0.22949304    -0.67830
O367        O  0.02955084  0.66513438  0.28106138    -0.87120
C368        C  0.04891028  0.79440261  0.20376714     0.85110
C369        C  0.94862429  0.82819428  0.22020936     1.06680
H370        H  0.03447535  0.72266555  0.23536140     0.38480
O371        O  0.01200813  0.72461966  0.24821487    -1.09780
O372        O  0.97858915  0.73192386  0.31746630    -0.66430
Ni373      Ni  0.02089922  0.74759372  0.29050168     1.26350
O374        O  0.02227393  0.77501217  0.19941056    -0.66660
O375        O  0.05389264  0.71035510  0.30569414    -0.78950
C376        C  0.03640852  0.80636370  0.32791432     0.84490
O377        O  0.02812707  0.77515138  0.33175334    -0.66130
Ni378      Ni  0.99170132  0.68025808  0.25199251     1.27450
Ni379      Ni  0.98154322  0.75926689  0.22801960     1.26060
H380        H  0.96862632  0.78531204  0.28266146     0.39040
O381        O  0.53265725  0.97614804  0.08261686    -0.80920
O382        O  0.42003089  0.02010974  0.97200351    -0.65610
O383        O  0.49295119  0.97055926  0.02207741    -1.12210
C384        C  0.56913975  0.05509247  0.97233126     1.05970
O385        O  0.45556432  0.01276581  0.92662241    -0.78810
O386        O  0.52223352  0.99334230  0.92369031    -0.66400
Ni387      Ni  0.48675707  0.95835768  0.06834610     1.34870
C388        C  0.53341215  0.96612140  0.93724695     0.84710
O389        O  0.41572382  0.96644242  0.01483009    -0.79350
O390        O  0.44095314  0.93757007  0.05697680    -0.89630
C391        C  0.42409212  0.01760715  0.93942839     0.84280
O392        O  0.46776856  0.00091090  0.08494203    -0.67830
O393        O  0.54360091  0.05850199  0.95124780    -0.87120
C394        C  0.46209187  0.02919666  0.07031759     0.85110
C395        C  0.41635322  0.94099764  0.03498378     1.06680
H396        H  0.49342188  0.04469321  0.99687385     0.38480
O397        O  0.49499432  0.02287727  0.98561660    -1.09780
O398        O  0.54081413  0.96498052  0.96922375    -0.66430
Ni399      Ni  0.53262499  0.99823258  0.00757676     1.26350
O400        O  0.45154384  0.03019900  0.03905660    -0.66660
O401        O  0.57068861  0.02975396  0.99284794    -0.78950
C402        C  0.56396761  0.97391800  0.06869730     0.84490
O403        O  0.56789188  0.97480291  0.03606097    -0.66130
Ni404      Ni  0.49969224  0.03459040  0.93973508     1.27450
Ni405      Ni  0.45523157  0.99626969  0.00055640     1.26060
H406        H  0.49487943  0.94911955  0.01013101     0.39040
C407        C  0.26052630  0.71601417  0.26816258     0.03100
C408        C  0.28198513  0.73168881  0.24342998    -0.13050
C409        C  0.26990394  0.76155483  0.22812623     0.00600
C410        C  0.23554249  0.77439410  0.23629517    -0.11570
C411        C  0.21578003  0.76000373  0.26298244     0.03100
C412        C  0.22789261  0.73054349  0.27860362    -0.10990
H413        H  0.30888109  0.72174818  0.23781856     0.08690
H414        H  0.22575354  0.79750228  0.22454306     0.06220
H415        H  0.21385745  0.72098694  0.30110323     0.06070
O416        O  0.36280022  0.60648696  0.42152330    -0.74450
O417        O  0.31484008  0.53417940  0.37546834    -0.74480
O418        O  0.36861276  0.54031932  0.42832217    -0.74540
O419        O  0.31343629  0.60175771  0.37304158    -0.74590
O420        O  0.35804705  0.60163802  0.33383691    -0.74520
O421        O  0.41031352  0.53740023  0.38697951    -0.74500
O422        O  0.35674394  0.53502797  0.33429873    -0.74470
O423        O  0.40714690  0.60348035  0.38229330    -0.74540
Ni424      Ni  0.33819603  0.56985412  0.40108053     1.25410
Ni425      Ni  0.38467460  0.56846748  0.35796367     1.25360
C426        C  0.39279197  0.61691833  0.40906538     0.87730
C427        C  0.32399577  0.52953578  0.34400542     0.87660
C428        C  0.40184928  0.53619098  0.41890275     0.87690
C429        C  0.32763062  0.61270423  0.34528292     0.87860
C430        C  0.50112173  0.95353738  0.27444189     0.03100
C431        C  0.49188439  0.98542784  0.28737842    -0.13050
C432        C  0.47150209  0.00766795  0.26806615     0.00600
C433        C  0.45922196  0.99784657  0.23653268    -0.11570
C434        C  0.46496981  0.96452335  0.22565858     0.03100
C435        C  0.48702759  0.94253764  0.24406503    -0.10990
H436        H  0.50159881  0.99325796  0.31190301     0.08690
H437        H  0.44380079  0.01558336  0.22146585     0.06220
H438        H  0.49388814  0.91736754  0.23444662     0.06070
O439        O  0.64160749  0.87192155  0.32267580    -0.74450
O440        O  0.71527722  0.82907235  0.37527769    -0.74480
O441        O  0.64535416  0.82327090  0.37001666    -0.74540
O442        O  0.71173686  0.88333883  0.32408014    -0.74590
O443        O  0.70259080  0.92058026  0.36606466    -0.74520
O444        O  0.63540675  0.86183169  0.41059656    -0.74500
O445        O  0.70549083  0.86775050  0.41566036    -0.74470
O446        O  0.63232289  0.91071253  0.36368843    -0.74540
Ni447      Ni  0.67965599  0.85064588  0.34640181     1.25410
Ni448      Ni  0.66933455  0.89176035  0.39037209     1.25360
C449        C  0.62428990  0.89735894  0.33535213     0.87730
C450        C  0.71579924  0.83756902  0.40683056     0.87660
C451        C  0.63031371  0.83237371  0.39826902     0.87690
C452        C  0.71286427  0.91411090  0.33529380     0.87860
O453        O  0.32022400  0.85953907  0.11370498    -0.74450
O454        O  0.35552531  0.91913940  0.04362391    -0.74480
O455        O  0.30621177  0.86204784  0.04820830    -0.74540
O456        O  0.36472616  0.91152618  0.10889076    -0.74590
O457        O  0.41099530  0.87609539  0.09847687    -0.74520
O458        O  0.35081440  0.82443674  0.04037461    -0.74500
O459        O  0.39973447  0.88199024  0.03283374    -0.74470
O460        O  0.36709802  0.82430913  0.10469341    -0.74540
Ni461      Ni  0.33476123  0.88939496  0.07813130     1.25410
Ni462      Ni  0.38375660  0.85044769  0.06763658     1.25360
C463        C  0.33896666  0.83327283  0.12171041     0.87730
C464        C  0.38839822  0.91310824  0.03419308     0.87660
C465        C  0.31678303  0.83143309  0.04144038     0.87690
C466        C  0.39676754  0.90114159  0.11475731     0.87860
C467        C  0.24807154  0.97187276  0.47177130     0.03100
C468        C  0.26551595  0.95189460  0.49606849    -0.13050
C469        C  0.29741530  0.96312182  0.51017940     0.00600
C470        C  0.31513714  0.99093095  0.49625456    -0.11570
C471        C  0.29904522  0.00961211  0.47082956     0.03100
C472        C  0.26490524  0.00124715  0.45989973    -0.10990
H473        H  0.25380992  0.92843572  0.50506605     0.08690
H474        H  0.34065480  0.99874718  0.50609989     0.06220
H475        H  0.25177067  0.01789157  0.44198389     0.06070
C476        C  0.48032832  0.77508049  0.49814129     0.03100
C477        C  0.45686108  0.75368859  0.48170138    -0.13050
C478        C  0.47037472  0.73008171  0.45824984     0.00600
C479        C  0.50724958  0.72857501  0.45012872    -0.11570
C480        C  0.53104317  0.75198257  0.46384573     0.03100
C481        C  0.51684559  0.77465397  0.48895444    -0.10990
H482        H  0.42844380  0.75380262  0.48889938     0.08690
H483        H  0.51624599  0.70894927  0.43299585     0.06220
H484        H  0.53356443  0.79264851  0.50174629     0.06070
O485        O  0.35398133  0.87286501  0.63622595    -0.74450
O486        O  0.41108852  0.83138853  0.70555502    -0.74480
O487        O  0.35310591  0.88409327  0.70175863    -0.74540
O488        O  0.40610021  0.82639279  0.63896366    -0.74590
O489        O  0.44822394  0.86584380  0.63325591    -0.74520
O490        O  0.39232141  0.92542262  0.69372383    -0.74500
O491        O  0.45112094  0.87241878  0.70074067    -0.74470
O492        O  0.39591599  0.91258611  0.62852555    -0.74540
Ni493      Ni  0.37971022  0.85232867  0.67195722     1.25410
Ni494      Ni  0.42361360  0.89559865  0.66492299     1.25360
C495        C  0.36646941  0.89855978  0.62031025     0.87730
C496        C  0.44388752  0.84124991  0.70854141     0.87660
C497        C  0.35950165  0.91636178  0.70025271     0.87690
C498        C  0.43440029  0.83770629  0.62401573     0.87860
O499        O  0.43250821  0.13083612  0.36623584    -0.74450
O500        O  0.39086839  0.20324588  0.42017673    -0.74480
O501        O  0.38675889  0.13686819  0.41904936    -0.74540
O502        O  0.44279020  0.19695254  0.36541484    -0.74590
O503        O  0.39988005  0.20063581  0.32734359    -0.74520
O504        O  0.34059604  0.14182305  0.38383000    -0.74500
O505        O  0.34634681  0.20867282  0.38375305    -0.74470
O506        O  0.38642243  0.13597816  0.33107144    -0.74540
Ni507      Ni  0.41490697  0.16759210  0.39404226     1.25410
Ni508      Ni  0.36661645  0.17300657  0.35516582     1.25360
C509        C  0.41508751  0.12109397  0.34031130     0.87730
C510        C  0.35805075  0.21193086  0.41393797     0.87660
C511        C  0.35569525  0.12825725  0.40958213     0.87690
C512        C  0.43368954  0.20130917  0.33456824     0.87860
O513        O  0.11842971  0.82899537  0.37907460    -0.74450
O514        O  0.05260715  0.88148262  0.43515022    -0.74480
O515        O  0.04834845  0.82435308  0.38659313    -0.74540
O516        O  0.12194181  0.88057550  0.42316315    -0.74590
O517        O  0.11571350  0.91760336  0.38081540    -0.74520
O518        O  0.04043930  0.86342583  0.34704711    -0.74500
O519        O  0.04631808  0.91822413  0.39284568    -0.74470
O520        O  0.11055243  0.86604296  0.33668610    -0.74540
Ni521      Ni  0.08471925  0.85235193  0.40781518     1.25410
Ni522      Ni  0.07736577  0.89254916  0.36288374     1.25360
C523        C  0.12491878  0.83922118  0.34881639     0.87730
C524        C  0.04686307  0.91210703  0.42477712     0.87660
C525        C  0.03953315  0.83221637  0.35615358     0.87690
C526        C  0.13061326  0.90832686  0.40818009     0.87860
O527        O  0.80003798  0.04483603  0.17694382    -0.80920
O528        O  0.72932710  0.94100545  0.28086627    -0.65610
O529        O  0.74946508  0.01820583  0.22174866    -1.12210
C530        C  0.81460569  0.05122271  0.31822936     1.05970
O531        O  0.71822329  0.97345559  0.32590172    -0.78810
O532        O  0.71101267  0.04140913  0.30626930    -0.66400
Ni533      Ni  0.77012820  0.00631124  0.17785093     1.34870
C534        C  0.71400209  0.06722397  0.28648019     0.84710
O535        O  0.70292437  0.96430835  0.21674765    -0.79350
O536        O  0.73946843  0.96806183  0.17193914    -0.89630
C537        C  0.72235798  0.94399909  0.31279897     0.84280
O538        O  0.80923334  0.97894824  0.19616133    -0.67830
O539        O  0.78274917  0.04856716  0.33076663    -0.87120
C540        C  0.80606357  0.95253335  0.21475535     0.85110
C541        C  0.70780528  0.96510105  0.18424966     1.06680
H542        H  0.79206126  0.98635414  0.28351363     0.38480
O543        O  0.77075258  0.00033999  0.28060335    -1.09780
O544        O  0.74335917  0.07121811  0.26924982    -0.66430
Ni545      Ni  0.78217436  0.03948477  0.25244379     1.26350
O546        O  0.77714205  0.94800022  0.23249892    -0.66660
O547        O  0.81862941  0.05398880  0.28559989    -0.78950
C548        C  0.79246826  0.07406367  0.18841452     0.84490
O549        O  0.79024543  0.07784885  0.22078156    -0.66130
Ni550      Ni  0.74963369  0.01194656  0.32434768     1.27450
Ni551      Ni  0.73836547  0.97923386  0.24980106     1.26060
H552        H  0.72807803  0.03211073  0.21894727     0.39040
O553        O  0.73478836  0.17560596  0.97574557    -0.80920
O554        O  0.83491840  0.29653594  0.03078203    -0.65610
O555        O  0.75825248  0.23032588  0.01669233    -1.12210
C556        C  0.71468015  0.31466851  0.94708299     1.05970
O557        O  0.80319104  0.34407508  0.02203974    -0.78810
O558        O  0.73477340  0.31465500  0.04290804    -0.66400
Ni559      Ni  0.77610945  0.18688450  0.00162318     1.34870
C560        C  0.70756365  0.29459521  0.04337526     0.84710
O561        O  0.81195104  0.23541766  0.06352302    -0.79350
O562        O  0.81600640  0.19217513  0.02972725    -0.89630
C563        C  0.83305391  0.32910931  0.02814552     0.84280
O564        O  0.80108686  0.20718212  0.96228246    -0.67830
O565        O  0.71488573  0.32761387  0.97660120    -0.87120
C566        C  0.82826012  0.22683110  0.96388613     0.85110
C567        C  0.81086559  0.20322185  0.05967685     1.06680
H568        H  0.78950833  0.28817262  0.96817535     0.38480
O569        O  0.77430387  0.28717754  0.98833989    -1.09780
O570        O  0.70176563  0.27533183  0.01768601    -0.66430
Ni571      Ni  0.73480564  0.25501091  0.98236015     1.26350
O572        O  0.83316157  0.24383192  0.99112466    -0.66660
O573        O  0.71663009  0.28225233  0.94463109    -0.78950
C574        C  0.70265824  0.18700455  0.97750157     0.84490
O575        O  0.69693087  0.21953071  0.97879707    -0.66130
Ni576      Ni  0.75824711  0.33207579  0.00112323     1.27450
Ni577      Ni  0.79680632  0.26268408  0.02448437     1.26060
H578        H  0.74293720  0.22781801  0.03680212     0.39040
C579        C  0.28861949  0.26758757  0.72731653     0.03100
C580        C  0.26037099  0.28844732  0.73984330    -0.13050
C581        C  0.24047992  0.27875874  0.76864666     0.00600
C582        C  0.25151371  0.25061926  0.78742760    -0.11570
C583        C  0.28047814  0.23080200  0.77571100     0.03100
C584        C  0.29875479  0.23873930  0.74551922    -0.10990
H585        H  0.25287982  0.31141622  0.72639952     0.08690
H586        H  0.23754383  0.24403408  0.81100288     0.06220
H587        H  0.32067561  0.22239804  0.73637003     0.06070
C588        C  0.51333738  0.25995923  0.95948553     0.03100
C589        C  0.49337766  0.23280606  0.94769566    -0.13050
C590        C  0.46494798  0.22041462  0.96783979     0.00600
C591        C  0.45425719  0.23768600  0.99733612    -0.11570
C592        C  0.47368058  0.26549105  0.00858869     0.03100
C593        C  0.50428738  0.27558302  0.99034599    -0.10990
H594        H  0.50010340  0.22140018  0.92327676     0.08690
H595        H  0.43093283  0.22903319  0.01187192     0.06220
H596        H  0.52075908  0.29589421  0.99963324     0.06070
C597        C  0.47886922  0.49844495  0.79188414     0.03100
C598        C  0.46081530  0.48878152  0.76293023    -0.13050
C599        C  0.48081367  0.47648727  0.73506360     0.00600
C600        C  0.51807783  0.47362651  0.73602512    -0.11570
C601        C  0.53506800  0.47786102  0.76670502     0.03100
C602        C  0.51498627  0.48968746  0.79501329    -0.10990
H603        H  0.43200506  0.49304966  0.76137706     0.08690
H604        H  0.53311373  0.46438696  0.71381977     0.06220
H605        H  0.52766531  0.49434638  0.81891954     0.06070
C606        C  0.28476386  0.46796537  0.03181863     0.03100
C607        C  0.25172817  0.46025692  0.01813539    -0.13050
C608        C  0.24186260  0.47508300  0.98771630     0.00600
C609        C  0.26312191  0.49968972  0.97244451    -0.11570
C610        C  0.29597894  0.50812948  0.98630573     0.03100
C611        C  0.30752889  0.49150598  0.01563309    -0.10990
H612        H  0.23518797  0.44049639  0.02948126     0.08690
H613        H  0.25533220  0.51053146  0.94833846     0.06220
H614        H  0.33410278  0.49603083  0.02528446     0.06070
O615        O  0.40049125  0.62834023  0.83553348    -0.74450
O616        O  0.33345753  0.69015101  0.87918867    -0.74480
O617        O  0.39472858  0.69440345  0.82943505    -0.74540
O618        O  0.34553414  0.62374742  0.87959161    -0.74590
O619        O  0.38463221  0.62941960  0.92139407    -0.74520
O620        O  0.42997855  0.70212580  0.87325227    -0.74500
O621        O  0.36964380  0.69456160  0.92293273    -0.74470
O622        O  0.43914780  0.63566900  0.87754553    -0.74540
Ni623      Ni  0.36695778  0.65993439  0.85432350     1.25410
Ni624      Ni  0.40712488  0.66671272  0.90024437     1.25360
C625        C  0.42977473  0.62093951  0.85032095     0.87730
C626        C  0.33752981  0.69585688  0.91120987     0.87660
C627        C  0.42531879  0.70365939  0.84093132     0.87690
C628        C  0.35850631  0.61408746  0.90782748     0.87860
O629        O  0.63437635  0.40943196  0.86026577    -0.74450
O630        O  0.69565316  0.36768393  0.92394187    -0.74480
O631        O  0.70123171  0.41998774  0.87433557    -0.74540
O632        O  0.62811700  0.36065374  0.90689619    -0.74590
O633        O  0.64419382  0.32207404  0.86733485    -0.74520
O634        O  0.71788709  0.38268052  0.83453624    -0.74500
O635        O  0.71132848  0.32783528  0.88623794    -0.74470
O636        O  0.65166081  0.37179236  0.82046831    -0.74540
Ni637      Ni  0.66482163  0.39072084  0.89294916     1.25410
Ni638      Ni  0.68279609  0.34948435  0.85094001     1.25360
C639        C  0.63471064  0.39885119  0.82955386     0.87730
C640        C  0.70770351  0.33772149  0.91740266     0.87660
C641        C  0.71370997  0.41390847  0.84422165     0.87690
C642        C  0.62371885  0.33228564  0.89197459     0.87860
O643        O  0.43542406  0.38492624  0.60710661    -0.74450
O644        O  0.37694120  0.33954014  0.54228042    -0.74480
O645        O  0.42815745  0.39736980  0.54203941    -0.74540
O646        O  0.39088610  0.33198799  0.60607349    -0.74590
O647        O  0.34502880  0.36683832  0.61929974    -0.74520
O648        O  0.38203474  0.43205648  0.55313248    -0.74500
O649        O  0.33068711  0.37363671  0.55496578    -0.74470
O650        O  0.38889783  0.42018678  0.61824611    -0.74540
Ni651      Ni  0.40946280  0.36237958  0.57292802     1.25410
Ni652      Ni  0.35985125  0.39970927  0.58591295     1.25360
C653        C  0.42062741  0.40929669  0.62406123     0.87730
C654        C  0.34242979  0.34382700  0.54646092     0.87660
C655        C  0.41545764  0.42804481  0.54352007     0.87690
C656        C  0.36232752  0.33863929  0.62335125     0.87860
O657        O  0.43278963  0.35707821  0.13867581    -0.74450
O658        O  0.38388161  0.41252583  0.20672896    -0.74480
O659        O  0.44311091  0.35984673  0.20460756    -0.74540
O660        O  0.38043815  0.40411321  0.14137213    -0.74590
O661        O  0.33883505  0.36425703  0.15037224    -0.74520
O662        O  0.40432608  0.31769421  0.20975796    -0.74500
O663        O  0.34603157  0.37030965  0.21610284    -0.74470
O664        O  0.39078261  0.31737572  0.14501526    -0.74540
Ni665      Ni  0.41179371  0.38490284  0.17355827     1.25410
Ni666      Ni  0.36862513  0.34096448  0.18169656     1.25360
C667        C  0.41843342  0.32917266  0.12955854     0.87730
C668        C  0.35190588  0.40265314  0.21535192     0.87660
C669        C  0.43728219  0.32790373  0.20993927     0.87690
C670        C  0.34989462  0.39108984  0.13531675     0.87860
O671        O  0.40787547  0.09618745  0.89291404    -0.74450
O672        O  0.35823719  0.04316977  0.82758292    -0.74480
O673        O  0.36501041  0.10812432  0.84077906    -0.74540
O674        O  0.40515293  0.02997419  0.88312666    -0.74590
O675        O  0.36163130  0.03041154  0.92278897    -0.74520
O676        O  0.31556412  0.10377100  0.87413433    -0.74500
O677        O  0.31306879  0.03668146  0.86511870    -0.74470
O678        O  0.35902214  0.09646887  0.92719851    -0.74540
Ni679      Ni  0.38581641  0.06868128  0.85977914     1.25410
Ni680      Ni  0.33531219  0.06584491  0.89846844     1.25360
C681        C  0.39077834  0.10648487  0.91977452     0.87730
C682        C  0.32490488  0.03671964  0.83400708     0.87660
C683        C  0.33404066  0.11895190  0.85083361     0.87690
C684        C  0.39478411  0.02443171  0.91402443     0.87860
O685        O  0.12335685  0.42155704  0.88576064    -0.74450
O686        O  0.04774753  0.37263906  0.84436027    -0.74480
O687        O  0.05343299  0.42103607  0.89808645    -0.74540
O688        O  0.11731240  0.37810897  0.83457534    -0.74590
O689        O  0.12263861  0.33359575  0.86947727    -0.74520
O690        O  0.06359518  0.38116257  0.93677003    -0.74500
O691        O  0.05234646  0.33193979  0.88300124    -0.74470
O692        O  0.13203731  0.37704741  0.91999488    -0.74540
Ni693      Ni  0.08435107  0.39994417  0.86448902     1.25410
Ni694      Ni  0.09207338  0.35417596  0.90380454     1.25360
C695        C  0.14056730  0.40640252  0.90927485     0.87730
C696        C  0.04490369  0.34113998  0.85281123     0.87660
C697        C  0.05607732  0.41234856  0.92933891     0.87690
C698        C  0.13096272  0.34930513  0.84182585     0.87860
C699        C  0.70249024  0.71642820  0.25834664     0.03100
C700        C  0.68220377  0.73658849  0.23668707    -0.13050
C701        C  0.69828941  0.74755386  0.20621713     0.00600
C702        C  0.73212309  0.73523735  0.19605222    -0.11570
C703        C  0.75166816  0.71498859  0.21798888     0.03100
C704        C  0.73797919  0.70766213  0.24995553    -0.10990
H705        H  0.65541415  0.74540313  0.24426376     0.08690
H706        H  0.74470182  0.74397915  0.17250537     0.06220
H707        H  0.75432872  0.69391417  0.26793405     0.06070
O708        O  0.63544974  0.66331619  0.39375270    -0.74450
O709        O  0.58271051  0.60992486  0.45982477    -0.74480
O710        O  0.64087944  0.66544889  0.45907479    -0.74540
O711        O  0.58479144  0.61698079  0.39365248    -0.74590
O712        O  0.62756408  0.57674288  0.39143486    -0.74520
O713        O  0.68204847  0.62435161  0.45730123    -0.74500
O714        O  0.62582074  0.57059140  0.45806317    -0.74470
O715        O  0.67812202  0.62303035  0.39085152    -0.74540
Ni716      Ni  0.60928025  0.64036229  0.42820288     1.25410
Ni717      Ni  0.65488456  0.59717302  0.42548532     1.25360
C718        C  0.66385677  0.65037330  0.37990516     0.87730
C719        C  0.59199388  0.57804445  0.46214154     0.87660
C720        C  0.67445775  0.65636495  0.46111382     0.87690
C721        C  0.59916151  0.59061409  0.37975076     0.87860
C722        C  0.78469557  0.52721975  0.02186320     0.03100
C723        C  0.77933404  0.54172539  0.99006314    -0.13050
C724        C  0.74643152  0.53792739  0.97490023     0.00600
C725        C  0.72017529  0.51691922  0.98918386    -0.11570
C726        C  0.72797175  0.49731602  0.01755038     0.03100
C727        C  0.76011730  0.50362069  0.03458240    -0.10990
H728        H  0.79845986  0.55983211  0.97960145     0.08690
H729        H  0.69373183  0.51719071  0.97865230     0.06220
H730        H  0.76435990  0.49235156  0.05907995     0.06070
C731        C  0.48807671  0.72191525  0.02929490     0.03100
C732        C  0.50958644  0.71220623  0.00119159    -0.13050
C733        C  0.53608937  0.73408475  0.98842591     0.00600
C734        C  0.54332676  0.76402688  0.00561793    -0.11570
C735        C  0.52266916  0.77360514  0.03417709     0.03100
C736        C  0.49567270  0.75205449  0.04661306    -0.10990
H737        H  0.50401227  0.68890059  0.98769684     0.08690
H738        H  0.56456226  0.78044192  0.99622845     0.06220
H739        H  0.48014299  0.75907271  0.06924866     0.06070
C740        C  0.56159196  0.54957818  0.24652561     0.03100
C741        C  0.52791346  0.56117320  0.23617469    -0.13050
C742        C  0.51111403  0.54480409  0.20987141     0.00600
C743        C  0.52576859  0.51539789  0.19576775    -0.11570
C744        C  0.55929433  0.50339342  0.20578733     0.03100
C745        C  0.57835395  0.52175108  0.22976141    -0.10990
H746        H  0.51401150  0.58188177  0.24936846     0.08690
H747        H  0.51069235  0.50169624  0.17698191     0.06220
H748        H  0.60501708  0.51350350  0.23683934     0.06070
O749        O  0.36600866  0.61443276  0.16817804    -0.74450
O750        O  0.29302649  0.66111011  0.12074369    -0.74480
O751        O  0.29591179  0.61220679  0.17460128    -0.74540
O752        O  0.36384629  0.65846893  0.11681585    -0.74590
O753        O  0.36241728  0.61578456  0.07958534    -0.74520
O754        O  0.29471316  0.56935710  0.13801425    -0.74500
O755        O  0.29126174  0.61977643  0.08267863    -0.74470
O756        O  0.36524096  0.57141342  0.13096637    -0.74540
Ni757      Ni  0.32893458  0.63803942  0.14646816     1.25410
Ni758      Ni  0.32731751  0.59240342  0.10643126     1.25360
C759        C  0.37831426  0.58623768  0.15672881     0.87730
C760        C  0.28767615  0.65160005  0.09017290     0.87660
C761        C  0.29106795  0.58038333  0.16862782     0.87690
C762        C  0.37481665  0.64423388  0.08910521     0.87860
O763        O  0.58848888  0.36579028  0.11596443    -0.74450
O764        O  0.64569723  0.30043482  0.06496157    -0.74480
O765        O  0.59051089  0.29914240  0.11871298    -0.74540
O766        O  0.63929994  0.36764520  0.06758295    -0.74590
O767        O  0.68132080  0.37018214  0.10701548    -0.74520
O768        O  0.63241966  0.30094244  0.15777532    -0.74500
O769        O  0.68863807  0.30356112  0.10302538    -0.74470
O770        O  0.63069967  0.36726504  0.15530299    -0.74540
Ni771      Ni  0.61457070  0.33221019  0.09032057     1.25410
Ni772      Ni  0.65999244  0.33442180  0.13220470     1.25360
C773        C  0.60137776  0.37853479  0.14282453     0.87730
C774        C  0.67927009  0.29785054  0.07219932     0.87660
C775        C  0.59930325  0.29659544  0.15003720     0.87690
C776        C  0.66644824  0.38199328  0.08060540     0.87860
O777        O  0.63961423  0.68888443  0.85693820    -0.74450
O778        O  0.68227596  0.62768151  0.78997649    -0.74480
O779        O  0.62535777  0.68290226  0.79267436    -0.74540
O780        O  0.69009414  0.63843083  0.85539940    -0.74590
O781        O  0.64730536  0.60056407  0.86755696    -0.74520
O782        O  0.58429423  0.64368235  0.80333277    -0.74500
O783        O  0.64101199  0.58943965  0.80278788    -0.74470
O784        O  0.59723917  0.65085714  0.86869194    -0.74540
Ni785      Ni  0.66078455  0.66072923  0.82236488     1.25410
Ni786      Ni  0.61576321  0.61971975  0.83515881     1.25360
C787        C  0.61187695  0.67968175  0.87410055     0.87730
C788        C  0.67352971  0.59605901  0.79259954     0.87660
C789        C  0.59172887  0.67436743  0.79408964     0.87690
C790        C  0.67868034  0.61247340  0.87197104     0.87860
O791        O  0.89655771  0.64136316  0.17037857    -0.74450
O792        O  0.96743505  0.59332660  0.11849336    -0.74480
O793        O  0.96669418  0.64434730  0.16905337    -0.74540
O794        O  0.89682788  0.59355737  0.12295710    -0.74590
O795        O  0.89506805  0.63326346  0.08244205    -0.74520
O796        O  0.96384561  0.68538769  0.13038066    -0.74500
O797        O  0.96546541  0.63248036  0.07786906    -0.74470
O798        O  0.89337788  0.68132625  0.13013505    -0.74540
Ni799      Ni  0.93273876  0.61675161  0.14663448     1.25410
Ni800      Ni  0.93036780  0.65977260  0.10359341     1.25360
C801        C  0.88237652  0.66828893  0.15816294     0.87730
C802        C  0.97048858  0.60140451  0.08703255     0.87660
C803        C  0.96843278  0.67595321  0.16128919     0.87690
C804        C  0.88399553  0.60546317  0.09553329     0.87860
O805        O  0.58395231  0.89463050  0.12731688    -0.74450
O806        O  0.64527860  0.95624614  0.17161765    -0.74480
O807        O  0.58742035  0.96159114  0.12419018    -0.74540
O808        O  0.63899720  0.88994759  0.16854441    -0.74590
O809        O  0.67691049  0.88651526  0.12351370    -0.74520
O810        O  0.62622051  0.95886940  0.08034311    -0.74500
O811        O  0.68465326  0.95268682  0.12818221    -0.74470
O812        O  0.62125126  0.89166603  0.08206434    -0.74540
Ni813      Ni  0.61258186  0.92655821  0.14946578     1.25410
Ni814      Ni  0.65383243  0.92321648  0.10186118     1.25360
C815        C  0.59280686  0.88207459  0.09850049     0.87730
C816        C  0.67771463  0.95842352  0.16009024     0.87660
C817        C  0.59462865  0.96621615  0.09225498     0.87690
C818        C  0.66542454  0.87577973  0.15224150     0.87860
O819        O  0.78042018  0.54577285  0.67674366    -0.80920
O820        O  0.72128548  0.43982043  0.78757446    -0.65610
O821        O  0.73570471  0.51732321  0.72675028    -1.12210
C822        C  0.80423763  0.55114900  0.81940336     1.05970
O823        O  0.70941327  0.47342092  0.83125312    -0.78810
O824        O  0.69959761  0.54074158  0.80887760    -0.66400
Ni825      Ni  0.75579311  0.50433048  0.68307574     1.34870
C826        C  0.70282577  0.56740264  0.79041936     0.84710
O827        O  0.68995018  0.46170085  0.72402581    -0.79350
O828        O  0.72951304  0.46353694  0.68270122    -0.89630
C829        C  0.71684550  0.44373661  0.81976922     0.84280
O830        O  0.79771531  0.48179529  0.70268405    -0.67830
O831        O  0.77221374  0.55079719  0.83200017    -0.87120
C832        C  0.79602686  0.45480034  0.72081888     0.85110
C833        C  0.69671277  0.46286444  0.69192446     1.06680
H834        H  0.78142417  0.48666790  0.78767000     0.38480
O835        O  0.75980896  0.50027765  0.78468585    -1.09780
O836        O  0.73231759  0.57148750  0.77346711    -0.66430
Ni837      Ni  0.76977633  0.53887325  0.75560116     1.26350
O838        O  0.76673706  0.44809651  0.73737601    -0.66660
O839        O  0.80776483  0.55331412  0.78681007    -0.78950
C840        C  0.77762727  0.57445727  0.69129955     0.84490
O841        O  0.77661518  0.57685048  0.72382267    -0.66130
Ni842      Ni  0.73932035  0.51312291  0.82798776     1.27450
Ni843      Ni  0.72685636  0.47797965  0.75562644     1.26060
H844        H  0.71413260  0.53086833  0.72439455     0.39040
O845        O  0.97340798  0.04846035  0.57655327    -0.80920
O846        O  0.04487988  0.93988458  0.48042033    -0.65610
O847        O  0.02624895  0.02021571  0.53515416    -1.12210
C848        C  0.95857224  0.05405594  0.43742475     1.05970
O849        O  0.05556693  0.97101194  0.43567975    -0.78810
O850        O  0.06045712  0.03947256  0.44496290    -0.66400
Ni851      Ni  0.00615039  0.01143054  0.57947685     1.34870
C852        C  0.06002011  0.06452588  0.46576683     0.84710
O853        O  0.07407131  0.96572806  0.54230522    -0.79350
O854        O  0.04198512  0.97654286  0.58936393    -0.89630
C855        C  0.04751956  0.94228129  0.44825088     0.84280
O856        O  0.96735215  0.98188502  0.56309873    -0.67830
O857        O  0.98685916  0.04303855  0.42165257    -0.87120
C858        C  0.96943649  0.95488726  0.54521031     0.85110
C859        C  0.07238421  0.96988254  0.57493693     1.06680
H860        H  0.98172262  0.98734096  0.47660092     0.38480
O861        O  0.00344784  0.00054254  0.47770382    -1.09780
O862        O  0.03300690  0.06963471  0.48578497    -0.66430
Ni863      Ni  0.99362461  0.04147085  0.50373767     1.26350
O864        O  0.99836360  0.94929225  0.52766568    -0.66660
O865        O  0.95805818  0.05768822  0.47015988    -0.78950
C866        C  0.98178636  0.07763292  0.56559616     0.84490
O867        O  0.98695613  0.08134857  0.53355944    -0.66130
Ni868      Ni  0.02228288  0.00806550  0.43213331     1.27450
Ni869      Ni  0.03691276  0.97971940  0.50923434     1.26060
H870        H  0.04784947  0.03345609  0.53720362     0.39040
C871        C  0.52009534  0.05757300  0.70754811     0.03100
C872        C  0.53217775  0.02483846  0.69935735    -0.13050
C873        C  0.56035061  0.00950335  0.71682498     0.00600
C874        C  0.57406075  0.02604803  0.74492442    -0.11570
C875        C  0.56356197  0.05948326  0.75232535     0.03100
C876        C  0.53692773  0.07549777  0.73339003    -0.10990
H877        H  0.51878349  0.01069664  0.68008515     0.08690
H878        H  0.59161648  0.01265231  0.76196753     0.06220
H879        H  0.52737977  0.10073115  0.74058793     0.06070
C880        C  0.71363303  0.01719228  0.53550295     0.03100
C881        C  0.74358112  0.03023476  0.55132701    -0.13050
C882        C  0.76181144  0.05743702  0.53680697     0.00600
C883        C  0.75166795  0.07051031  0.50557464    -0.11570
C884        C  0.72274420  0.05633803  0.48920028     0.03100
C885        C  0.70280432  0.03055082  0.50453345    -0.10990
H886        H  0.75370215  0.01819116  0.57403207     0.08690
H887        H  0.76674644  0.09097247  0.49370270     0.06220
H888        H  0.67988262  0.02002987  0.49179697     0.06070
C889        C  0.55354771  0.21672703  0.48587829     0.03100
C890        C  0.58158651  0.23536927  0.50003255    -0.13050
C891        C  0.57834975  0.24725948  0.53361932     0.00600
C892        C  0.54953482  0.23640432  0.55422712    -0.11570
C893        C  0.52404915  0.21476958  0.54140796     0.03100
C894        C  0.52500502  0.20615910  0.50710444    -0.10990
H895        H  0.60445399  0.24295470  0.48435890     0.08690
H896        H  0.54514797  0.24675670  0.57952342     0.06220
H897        H  0.50254311  0.19246148  0.49692207     0.06070
O898        O  0.62410461  0.17908577  0.34771727    -0.74450
O899        O  0.68940551  0.12663928  0.28836033    -0.74480
O900        O  0.62931074  0.17775400  0.28132328    -0.74540
O901        O  0.67894877  0.13496308  0.35420856    -0.74590
O902        O  0.63924573  0.09263936  0.35488905    -0.74520
O903        O  0.59101354  0.13537925  0.27984539    -0.74500
O904        O  0.65016315  0.08462351  0.28897145    -0.74470
O905        O  0.58491302  0.13685101  0.34597744    -0.74540
Ni906      Ni  0.65707400  0.15611523  0.31682365     1.25410
Ni907      Ni  0.61507074  0.11071049  0.31638491     1.25360
C908        C  0.59431033  0.16552049  0.35758347     0.87730
C909        C  0.68314921  0.09430606  0.28620968     0.87660
C910        C  0.59695920  0.16754491  0.27668446     0.87690
C911        C  0.66596879  0.10811076  0.36750995     0.87860
O912        O  0.37112148  0.13456027  0.67108859    -0.74450
O913        O  0.30390929  0.18945679  0.62047467    -0.74480
O914        O  0.30029122  0.13118765  0.66712423    -0.74540
O915        O  0.37515326  0.18690385  0.62907964    -0.74590
O916        O  0.38019337  0.15100430  0.58509428    -0.74520
O917        O  0.30718787  0.09338496  0.62571630    -0.74500
O918        O  0.30923370  0.15294492  0.57761434    -0.74470
O919        O  0.37706191  0.09873937  0.62738588    -0.74540
Ni920      Ni  0.33628385  0.16181887  0.64841474     1.25410
Ni921      Ni  0.34236783  0.12281602  0.60212640     1.25360
C922        C  0.38673057  0.10909552  0.65651865     0.87730
C923        C  0.30196951  0.18347961  0.58833924     0.87660
C924        C  0.29927097  0.09987191  0.65719484     0.87690
C925        C  0.39153825  0.17627559  0.60213161     0.87860
C926        C  0.71622192  0.26547448  0.73082562     0.03100
C927        C  0.74128458  0.24766141  0.71040890    -0.13050
C928        C  0.75212329  0.21503143  0.71926479     0.00600
C929        C  0.73510556  0.19850488  0.74605831    -0.11570
C930        C  0.71165371  0.21688475  0.76736516     0.03100
C931        C  0.70331788  0.25085049  0.76087725    -0.10990
H932        H  0.75310322  0.25947001  0.68792294     0.08690
H933        H  0.74201591  0.17230680  0.75184289     0.06220
H934        H  0.68689781  0.26535772  0.77888688     0.06070
O935        O  0.68694101  0.39203236  0.62950270    -0.74450
O936        O  0.63378318  0.45642179  0.57520275    -0.74480
O937        O  0.68103143  0.45889207  0.63322134    -0.74540
O938        O  0.64466039  0.39005566  0.57617182    -0.74590
O939        O  0.59605925  0.38640034  0.61069342    -0.74520
O940        O  0.63588075  0.45291493  0.67059686    -0.74500
O941        O  0.58855398  0.45396706  0.61321583    -0.74470
O942        O  0.63816926  0.38806889  0.66349352    -0.74540
Ni943      Ni  0.66337670  0.42556258  0.60217874     1.25410
Ni944      Ni  0.61266777  0.42110227  0.64055799     1.25360
C945        C  0.66983493  0.37836763  0.65453973     0.87730
C946        C  0.59991516  0.45973269  0.58273442     0.87660
C947        C  0.66924121  0.45943361  0.66425815     0.87690
C948        C  0.61565989  0.37548377  0.58555413     0.87860
O949        O  0.59801055  0.87265153  0.62870227    -0.74450
O950        O  0.65751317  0.80953095  0.57563563    -0.74480
O951        O  0.60207280  0.80558775  0.63077833    -0.74540
O952        O  0.64619868  0.87561355  0.57839300    -0.74590
O953        O  0.69209407  0.87645020  0.61403605    -0.74520
O954        O  0.64183924  0.81108700  0.67127258    -0.74500
O955        O  0.69831497  0.80879634  0.61581542    -0.74470
O956        O  0.64342522  0.87664292  0.66434335    -0.74540
Ni957      Ni  0.62440330  0.83956447  0.60196579     1.25410
Ni958      Ni  0.67072695  0.84225208  0.64270841     1.25360
C959        C  0.61279615  0.88671126  0.65406674     0.87730
C960        C  0.69064436  0.80499186  0.58431334     0.87660
C961        C  0.60919677  0.80487104  0.66266684     0.87690
C962        C  0.67535831  0.88842537  0.58839710     0.87860
O963        O  0.89183945  0.14006835  0.66488465    -0.74450
O964        O  0.97356975  0.09831139  0.62199295    -0.74480
O965        O  0.96108077  0.14794489  0.67327599    -0.74540
O966        O  0.90334841  0.09215707  0.61851441    -0.74590
O967        O  0.90235124  0.13241630  0.57834931    -0.74520
O968        O  0.96127297  0.18897579  0.63448414    -0.74500
O969        O  0.97297452  0.13712639  0.58108624    -0.74470
O970        O  0.89225704  0.18070745  0.62512178    -0.74540
Ni971      Ni  0.93330973  0.11823109  0.64611797     1.25410
Ni972      Ni  0.93330682  0.16144943  0.60316730     1.25360
C973        C  0.87826411  0.16674568  0.65137400     0.87730
C974        C  0.97852586  0.10633711  0.59061257     0.87660
C975        C  0.96336564  0.17957944  0.66585880     0.87690
C976        C  0.89159501  0.10405998  0.59077924     0.87860
O977        O  0.63926631  0.16821370  0.90365244    -0.74450
O978        O  0.58782789  0.11346148  0.96768903    -0.74480
O979        O  0.64005623  0.16855933  0.96961400    -0.74540
O980        O  0.59118718  0.11948831  0.90034438    -0.74590
O981        O  0.63595020  0.08099074  0.89716851    -0.74520
O982        O  0.68308978  0.12902099  0.96834568    -0.74500
O983        O  0.63116104  0.07397550  0.96495789    -0.74470
O984        O  0.68406422  0.12955833  0.90179720    -0.74540
Ni985      Ni  0.61279882  0.14363211  0.93644536     1.25410
Ni986      Ni  0.66013764  0.10178368  0.93407230     1.25360
C987        C  0.66897313  0.15660005  0.89100106     0.87730
C988        C  0.59788742  0.08210695  0.97052648     0.87660
C989        C  0.67337443  0.16041100  0.97302292     0.87690
C990        C  0.60731262  0.09456681  0.88529696     0.87860
C991        C  0.03099827  0.78320998  0.53609873     0.03100
C992        C  0.99604222  0.77713543  0.54774344    -0.13050
C993        C  0.97930195  0.74763200  0.53774508     0.00600
C994        C  0.99466645  0.72815877  0.51120509    -0.11570
C995        C  0.02939860  0.73464051  0.49932786     0.03100
C996        C  0.04806861  0.76188780  0.51247656    -0.10990
H997        H  0.98330655  0.79383726  0.56637372     0.08690
H998        H  0.98095384  0.70622330  0.50152728     0.06220
H999        H  0.07577830  0.76650088  0.50450831     0.06070
O1000       O  0.12427358  0.57876974  0.38812537    -0.74450
O1001       O  0.07668430  0.62239817  0.31475485    -0.74480
O1002       O  0.13009078  0.56702744  0.32237586    -0.74540
O1003       O  0.07654502  0.62895189  0.38157392    -0.74590
O1004       O  0.12232812  0.66504951  0.37899685    -0.74520
O1005       O  0.17114337  0.60701490  0.31513288    -0.74500
O1006       O  0.11730684  0.66308140  0.31335011    -0.74470
O1007       O  0.16989153  0.61482905  0.38184182    -0.74540
Ni1008     Ni  0.10020221  0.59780024  0.35092413     1.25410
Ni1009     Ni  0.14692847  0.63865319  0.34611752     1.25360
C1010       C  0.15415192  0.59064498  0.39777723     0.87730
C1011       C  0.08469452  0.65364632  0.30859739     0.87660
C1012       C  0.16285703  0.57524078  0.31493748     0.87690
C1013       C  0.09174388  0.65631778  0.39102227     0.87860
C1014       C  0.25386279  0.70428363  0.72598803     0.03100
C1015       C  0.22802872  0.69144003  0.74842190    -0.13050
C1016       C  0.19333430  0.70561351  0.75012534     0.00600
C1017       C  0.18515944  0.73444487  0.73071911    -0.11570
C1018       C  0.21238733  0.74954403  0.71077411     0.03100
C1019       C  0.24586839  0.73323234  0.70698184    -0.10990
H1020       H  0.23561004  0.67202865  0.76647043     0.08690
H1021       H  0.15890371  0.74655806  0.73351209     0.06220
H1022       H  0.26671724  0.74447806  0.69095024     0.06070
C1023       C  0.26047970  0.53341552  0.55436348     0.03100
C1024       C  0.23754829  0.55047201  0.53263816    -0.13050
C1025       C  0.20806235  0.53387878  0.51950482     0.00600
C1026       C  0.19994701  0.50099242  0.53010349    -0.11570
C1027       C  0.22216322  0.48433549  0.55325805     0.03100
C1028       C  0.25301607  0.50027314  0.56405761    -0.10990
H1029       H  0.24408119  0.57587695  0.52386924     0.08690
H1030       H  0.17763251  0.48789428  0.51908175     0.06220
H1031       H  0.27127221  0.48691226  0.58021460     0.06070
O1032       O  0.40411307  0.62969861  0.69195955    -0.74450
O1033       O  0.46218146  0.58046105  0.62817922    -0.74480
O1034       O  0.47286608  0.63138253  0.67983496    -0.74540
O1035       O  0.39194885  0.58467099  0.64328533    -0.74590
O1036       O  0.38322556  0.62786151  0.60752043    -0.74520
O1037       O  0.46882900  0.66770333  0.63697852    -0.74500
O1038       O  0.44940490  0.61641595  0.58685953    -0.74470
O1039       O  0.39916514  0.67258757  0.65498529    -0.74540
Ni1040     Ni  0.43390200  0.60482867  0.66196275     1.25410
Ni1041     Ni  0.42596382  0.64791077  0.62003232     1.25360
C1042       C  0.39074461  0.65825581  0.68342487     0.87730
C1043       C  0.45777760  0.58594599  0.59638783     0.87660
C1044       C  0.47747858  0.66142054  0.66777384     0.87690
C1045       C  0.37374845  0.59970315  0.62028258     0.87860
C1046       C  0.04521215  0.50684509  0.71625456     0.03100
C1047       C  0.06135804  0.52340606  0.74311091    -0.13050
C1048       C  0.04482477  0.55264755  0.75733241     0.00600
C1049       C  0.01353908  0.56551276  0.74317834    -0.11570
C1050       C  0.00042266  0.55092592  0.71395380     0.03100
C1051       C  0.01572460  0.52133146  0.70061024    -0.10990
H1052       H  0.08519975  0.51226854  0.75421968     0.08690
H1053       H  0.99839506  0.58596335  0.75541412     0.06220
H1054       H  0.00374523  0.50883027  0.67914293     0.06070
O1055       O  0.13427639  0.35536088  0.59093872    -0.74450
O1056       O  0.06684411  0.30293489  0.64500658    -0.74480
O1057       O  0.08124449  0.36824209  0.63707400    -0.74540
O1058       O  0.12363640  0.28969283  0.59474997    -0.74590
O1059       O  0.16627813  0.28742304  0.63299201    -0.74520
O1060       O  0.12042709  0.36379713  0.67913388    -0.74500
O1061       O  0.10762408  0.29815952  0.68516766    -0.74470
O1062       O  0.17341762  0.35216887  0.63279140    -0.74540
Ni1063     Ni  0.09985642  0.32841703  0.61552557     1.25410
Ni1064     Ni  0.14310391  0.32426800  0.65929390     1.25360
C1065       C  0.16474357  0.36269462  0.60341240     0.87730
C1066       C  0.07435815  0.29811063  0.67642986     0.87660
C1067       C  0.09480196  0.37948869  0.66426018     0.87690
C1068       C  0.15665431  0.28331718  0.60202273     0.87860
O1069       O  0.86889367  0.63698497  0.59518120    -0.74450
O1070       O  0.78691011  0.59706029  0.63634201    -0.74480
O1071       O  0.79984221  0.64649632  0.58604894    -0.74540
O1072       O  0.85723301  0.59068828  0.64276699    -0.74590
O1073       O  0.85703831  0.63246837  0.68142661    -0.74520
O1074       O  0.79563332  0.68640694  0.62604122    -0.74500
O1075       O  0.78663295  0.63443483  0.67848117    -0.74470
O1076       O  0.86495039  0.67892937  0.63341977    -0.74540
Ni1077     Ni  0.82746557  0.61624734  0.61365909     1.25410
Ni1078     Ni  0.82498271  0.65967563  0.65643959     1.25360
C1079       C  0.87957124  0.66511016  0.60699143     0.87730
C1080       C  0.78171037  0.60407864  0.66787274     0.87660
C1081       C  0.79603785  0.67790628  0.59445550     0.87690
C1082       C  0.86865463  0.60393487  0.66999507     0.87860
O1083       O  0.16032045  0.89060637  0.67119945    -0.74450
O1084       O  0.09929202  0.95786316  0.63013689    -0.74480
O1085       O  0.10430399  0.89171016  0.62977373    -0.74540
O1086       O  0.16034179  0.95707776  0.67669221    -0.74590
O1087       O  0.19907926  0.95964211  0.63295754    -0.74520
O1088       O  0.14235345  0.89420423  0.58486816    -0.74500
O1089       O  0.13727572  0.96043588  0.58604725    -0.74470
O1090       O  0.19842699  0.89238769  0.62670258    -0.74540
Ni1091     Ni  0.12975322  0.92511644  0.65360920     1.25410
Ni1092     Ni  0.17078495  0.92774932  0.60607258     1.25360
C1093       C  0.18859639  0.87950659  0.65517158     0.87730
C1094       C  0.10470674  0.96311731  0.59803785     0.87660
C1095       C  0.11443547  0.88220425  0.60004027     0.87690
C1096       C  0.19260106  0.96253161  0.66528517     0.87860
O1097       O  0.12630029  0.67355313  0.89680450    -0.74450
O1098       O  0.08110306  0.62129396  0.96767037    -0.74480
O1099       O  0.13784474  0.67368010  0.96278301    -0.74540
O1100       O  0.07762868  0.62473033  0.90098656    -0.74590
O1101       O  0.12287568  0.58744793  0.89278419    -0.74520
O1102       O  0.17847686  0.63185162  0.95956275    -0.74500
O1103       O  0.12141847  0.58023805  0.95867453    -0.74470
O1104       O  0.17135097  0.63545728  0.89183215    -0.74540
Ni1105     Ni  0.10427355  0.64986232  0.93339526     1.25410
Ni1106     Ni  0.15034234  0.60733005  0.92664571     1.25360
C1107       C  0.15413545  0.66169466  0.88108786     0.87730
C1108       C  0.08866033  0.58928088  0.96667312     0.87660
C1109       C  0.17096410  0.66337544  0.96532051     0.87690
C1110       C  0.09183574  0.59886733  0.88555073     0.87860
C1111       C  0.75099526  0.28632631  0.26573783     0.03100
C1112       C  0.74917536  0.25252255  0.27519951    -0.13050
C1113       C  0.77804716  0.23117299  0.26825594     0.00600
C1114       C  0.80445974  0.24071926  0.24407602    -0.11570
C1115       C  0.80289329  0.27350133  0.23003863     0.03100
C1116       C  0.77841552  0.29742951  0.24413838    -0.10990
H1117       H  0.72756806  0.24405247  0.29221445     0.08690
H1118       H  0.82473440  0.22245226  0.23588017     0.06220
H1119       H  0.77917652  0.32383846  0.23633056     0.06070
O1120       O  0.63094665  0.41830768  0.37073525    -0.74450
O1121       O  0.55578015  0.37648587  0.32032463    -0.74480
O1122       O  0.56014157  0.42974709  0.37245966    -0.74540
O1123       O  0.62515656  0.37170033  0.32362110    -0.74590
O1124       O  0.61801244  0.33082449  0.36259919    -0.74520
O1125       O  0.55826263  0.39303385  0.41526538    -0.74500
O1126       O  0.54781572  0.34085894  0.36311301    -0.74470
O1127       O  0.62735237  0.37743991  0.40960197    -0.74540
Ni1128     Ni  0.59212747  0.40085648  0.34547853     1.25410
Ni1129     Ni  0.58646074  0.35919065  0.38930255     1.25360
C1130       C  0.64421344  0.40210337  0.39577647     0.87730
C1131       C  0.54782133  0.34646195  0.33082539     0.87660
C1132       C  0.55545674  0.42385557  0.40441156     0.87690
C1133       C  0.63313988  0.34256728  0.33559977     0.87860
C1134       C  0.77065989  0.47488385  0.51860520     0.03100
C1135       C  0.75559287  0.45086149  0.49720610    -0.13050
C1136       C  0.76293324  0.45173897  0.46192305     0.00600
C1137       C  0.78316982  0.47901503  0.44912357    -0.11570
C1138       C  0.79019369  0.50658412  0.46985131     0.03100
C1139       C  0.78538952  0.50419756  0.50479840    -0.10990
H1140       H  0.74075567  0.43045102  0.50894492     0.08690
H1141       H  0.79213875  0.48039305  0.42285982     0.06220
H1142       H  0.79660285  0.52341852  0.52106407     0.06070
C1143       C  0.96476387  0.49516028  0.30244322     0.03100
C1144       C  0.99585259  0.48325336  0.31805113    -0.13050
C1145       C  0.01865048  0.45942086  0.30196004     0.00600
C1146       C  0.00852406  0.44537927  0.27124923    -0.11570
C1147       C  0.97848604  0.45824859  0.25486047     0.03100
C1148       C  0.95621418  0.48287660  0.27043179    -0.10990
H1149       H  0.00376941  0.49514288  0.34151671     0.08690
H1150       H  0.02451652  0.42517530  0.25945289     0.06220
H1151       H  0.93354683  0.49343480  0.25701604     0.06070
C1152       C  0.94969335  0.31112657  0.51042963     0.03100
C1153       C  0.98135706  0.31753419  0.49195374    -0.13050
C1154       C  0.98589648  0.30566089  0.45892103     0.00600
C1155       C  0.95977900  0.28605207  0.44427351    -0.11570
C1156       C  0.92778702  0.27919432  0.46231826     0.03100
C1157       C  0.92176449  0.29376839  0.49461471    -0.10990
H1158       H  0.00379928  0.32981375  0.50383763     0.08690
H1159       H  0.96609980  0.27340089  0.42034729     0.06220
H1160       H  0.89676738  0.28891735  0.50831998     0.06070
O1161       O  0.15093307  0.40643929  0.39267816    -0.74450
O1162       O  0.21590339  0.34714213  0.43765317    -0.74480
O1163       O  0.22016930  0.40399116  0.38788767    -0.74540
O1164       O  0.14448668  0.35450534  0.43490864    -0.74590
O1165       O  0.14284924  0.31870131  0.39081486    -0.74520
O1166       O  0.22063376  0.36458599  0.34774693    -0.74500
O1167       O  0.21340077  0.30939714  0.39578584    -0.74470
O1168       O  0.14972330  0.37077555  0.34860276    -0.74540
Ni1169     Ni  0.18415251  0.37907829  0.41516519     1.25410
Ni1170     Ni  0.18257387  0.33937793  0.36918484     1.25360
C1171       C  0.13876088  0.39788081  0.36415185     0.87730
C1172       C  0.21874014  0.31615907  0.42731999     0.87660
C1173       C  0.22409440  0.39588870  0.35615458     0.87690
C1174       C  0.12925241  0.33088658  0.41821602     0.87860
O1175       O  0.82799143  0.39607186  0.64674170    -0.74450
O1176       O  0.88103220  0.34669929  0.71360216    -0.74480
O1177       O  0.82120877  0.39711179  0.71392368    -0.74540
O1178       O  0.88247376  0.35061831  0.64812020    -0.74590
O1179       O  0.92220203  0.39252011  0.64996845    -0.74520
O1180       O  0.85973375  0.43970120  0.71396928    -0.74500
O1181       O  0.91884185  0.38978512  0.71625035    -0.74470
O1182       O  0.86773093  0.43818891  0.64736045    -0.74540
Ni1183     Ni  0.85153247  0.37119368  0.68140396     1.25410
Ni1184     Ni  0.89348102  0.41663439  0.68285654     1.25360
C1185       C  0.84001893  0.42412880  0.63523202     0.87730
C1186       C  0.91293762  0.35758581  0.71893650     0.87660
C1187       C  0.82728306  0.42903937  0.71820005     0.87690
C1188       C  0.91233321  0.36387463  0.63838892     0.87860
O1189       O  0.85690562  0.36898929  0.11140347    -0.74450
O1190       O  0.91367062  0.43119270  0.05790989    -0.74480
O1191       O  0.85768925  0.38246822  0.04588373    -0.74540
O1192       O  0.90759154  0.41510141  0.12226445    -0.74590
O1193       O  0.95118881  0.37601215  0.11367712    -0.74520
O1194       O  0.89715483  0.33996818  0.03945004    -0.74500
O1195       O  0.95486489  0.39088965  0.04798589    -0.74470
O1196       O  0.90002235  0.32943764  0.10459599    -0.74540
Ni1197     Ni  0.88249303  0.40100557  0.08386275     1.25410
Ni1198     Ni  0.92754939  0.35778283  0.07515985     1.25360
C1199       C  0.86971406  0.33930215  0.11749815     0.87730
C1200       C  0.94650095  0.42278051  0.05047820     0.87660
C1201       C  0.86465323  0.35166032  0.03677910     0.87690
C1202       C  0.93685346  0.40057178  0.13081119     0.87860
O1203       O  0.87668093  0.64107046  0.42495298    -0.74450
O1204       O  0.92919075  0.70606974  0.37150151    -0.74480
O1205       O  0.87108495  0.70729923  0.42476652    -0.74540
O1206       O  0.92691861  0.63823609  0.37643830    -0.74590
O1207       O  0.88391263  0.63581180  0.33782913    -0.74520
O1208       O  0.83066761  0.70696071  0.38434460    -0.74500
O1209       O  0.88922989  0.70212970  0.33082132    -0.74470
O1210       O  0.83392139  0.63934664  0.38633790    -0.74540
Ni1211     Ni  0.90257819  0.67438265  0.40068691     1.25410
Ni1212     Ni  0.85782531  0.67222313  0.35832245     1.25360
C1213       C  0.84862065  0.62767647  0.41318696     0.87730
C1214       C  0.92196115  0.70794332  0.33969667     0.87660
C1215       C  0.83797505  0.71137387  0.41590036     0.87690
C1216       C  0.91243764  0.62389191  0.35097386     0.87860
O1217       O  0.86160540  0.13103582  0.34238582    -0.74450
O1218       O  0.93212914  0.07393483  0.38460492    -0.74480
O1219       O  0.87629481  0.06716665  0.33360666    -0.74540
O1220       O  0.91185074  0.13977957  0.38812150    -0.74590
O1221       O  0.87112780  0.12872190  0.42916880    -0.74520
O1222       O  0.83819811  0.05425905  0.37568671    -0.74500
O1223       O  0.89377281  0.06424845  0.42746879    -0.74470
O1224       O  0.82085498  0.11827805  0.38315633    -0.74540
Ni1225     Ni  0.89744353  0.10261813  0.36090034     1.25410
Ni1226     Ni  0.85492177  0.08995935  0.40554563     1.25360
C1227       C  0.82981597  0.13334362  0.35552641     0.87730
C1228       C  0.92652166  0.06454259  0.41565040     0.87660
C1229       C  0.84517205  0.05631159  0.34335734     0.87690
C1230       C  0.89500757  0.14791458  0.41570207     0.87860
O1231       O  0.04881777  0.32400864  0.79505307    -0.80920
O1232       O  0.96877272  0.23621985  0.69215784    -0.65610
O1233       O  0.99113251  0.28908406  0.77226550    -1.12210
C1234       C  0.05491517  0.18565075  0.80080687     1.05970
O1235       O  0.95483535  0.19339459  0.72482896    -0.78810
O1236       O  0.95251394  0.20172267  0.79410680    -0.66400
Ni1237     Ni  0.01175224  0.33319792  0.76437936     1.34870
C1238       C  0.95525241  0.22213870  0.81927968     0.84710
O1239       O  0.94376685  0.30109210  0.71915692    -0.79350
O1240       O  0.97293430  0.34762023  0.73606898    -0.89630
C1241       C  0.96365293  0.20433469  0.69536694     0.84280
O1242       O  0.04559260  0.32018874  0.72759954    -0.67830
O1243       O  0.02519993  0.17239481  0.79213273    -0.87120
C1244       C  0.04437974  0.29839206  0.70363379     0.85110
C1245       C  0.94449516  0.33348351  0.72573558     1.06680
H1246       H  0.03117368  0.22661270  0.73688594     0.38480
O1247       O  0.00996642  0.22981460  0.75135151    -1.09780
O1248       O  0.98363893  0.23984697  0.82224769    -0.66430
Ni1249     Ni  0.02297100  0.25479381  0.79126041     1.26350
O1250       O  0.01764364  0.27870742  0.70140284    -0.66660
O1251       O  0.05743855  0.21828818  0.80457555    -0.78950
C1252       C  0.04096940  0.31518904  0.82518249     0.84490
O1253       O  0.03381755  0.28387978  0.83031499    -0.66130
Ni1254     Ni  0.98885205  0.18608726  0.75982204     1.27450
Ni1255     Ni  0.97828681  0.26434591  0.73218520     1.26060
H1256       H  0.96990855  0.29196493  0.78677044     0.39040
C1257       C  0.00318600  0.23359097  0.03738389     0.03100
C1258       C  0.02874997  0.21739893  0.01711365    -0.13050
C1259       C  0.06022574  0.23374494  0.00750357     0.00600
C1260       C  0.06714902  0.26577337  0.02125191    -0.11570
C1261       C  0.03949339  0.28398987  0.03930436     0.03100
C1262       C  0.00655417  0.26783280  0.04546471    -0.10990
H1263       H  0.02361870  0.19173705  0.00849905     0.08690
H1264       H  0.09338555  0.27676813  0.01684826     0.06220
H1265       H  0.98353117  0.28105787  0.05615541     0.06070
O1266       O  0.09330175  0.40374239  0.12802627    -0.74450
O1267       O  0.15463356  0.45207840  0.18792970    -0.74480
O1268       O  0.10036629  0.46843141  0.13742195    -0.74540
O1269       O  0.14179689  0.38821881  0.17436538    -0.74590
O1270       O  0.18669100  0.38998459  0.13572620    -0.74520
O1271       O  0.13933331  0.46649716  0.09409381    -0.74500
O1272       O  0.19589777  0.45589951  0.14635111    -0.74470
O1273       O  0.13702637  0.40164483  0.08836231    -0.74540
Ni1274     Ni  0.12115237  0.42892315  0.15862077     1.25410
Ni1275     Ni  0.16678303  0.42951209  0.11486449     1.25360
C1276       C  0.10496549  0.39489107  0.09833893     0.87730
C1277       C  0.18785059  0.45592786  0.17854144     0.87660
C1278       C  0.10673733  0.47179381  0.10529532     0.87690
C1279       C  0.17031896  0.37545785  0.16074616     0.87860
C1280       C  0.00149630  0.97488559  0.25427131     0.03100
C1281       C  0.97184667  0.98907235  0.23870638    -0.13050
C1282       C  0.96053618  0.02196930  0.24690368     0.00600
C1283       C  0.97462834  0.03795760  0.27509580    -0.11570
C1284       C  0.00542216  0.02429672  0.29014406     0.03100
C1285       C  0.01719345  0.99163935  0.28120833    -0.10990
H1286       H  0.96201204  0.97650092  0.21633230     0.08690
H1287       H  0.96458116  0.06292432  0.28200903     0.06220
H1288       H  0.04104128  0.98089271  0.29248875     0.06070
C1289       C  0.21298708  0.24180786  0.20089133     0.03100
C1290       C  0.24782319  0.22984342  0.19346234    -0.13050
C1291       C  0.26071532  0.20100919  0.20999309     0.00600
C1292       C  0.24100989  0.18665712  0.23660302    -0.11570
C1293       C  0.20623491  0.19858290  0.24413474     0.03100
C1294       C  0.19144685  0.22477654  0.22493306    -0.10990
H1295       H  0.26509823  0.24292010  0.17529822     0.08690
H1296       H  0.25277805  0.16626383  0.25135226     0.06220
H1297       H  0.16444866  0.23412770  0.23114678     0.06070
O1298       O  0.11999193  0.08564854  0.39027489    -0.74450
O1299       O  0.18075865  0.13267933  0.45239040    -0.74480
O1300       O  0.12290082  0.08114599  0.45647777    -0.74540
O1301       O  0.17188270  0.13132014  0.38659060    -0.74590
O1302       O  0.13052096  0.17284263  0.39158296    -0.74520
O1303       O  0.08206684  0.12253001  0.46236824    -0.74500
O1304       O  0.13827837  0.17266634  0.45827363    -0.74470
O1305       O  0.07916587  0.12728879  0.39611248    -0.74540
Ni1306     Ni  0.15062352  0.10611355  0.42232775     1.25410
Ni1307     Ni  0.10623647  0.15038908  0.42819844     1.25360
C1308       C  0.09004815  0.09969695  0.38225057     0.87730
C1309       C  0.17172624  0.16386721  0.45878875     0.87660
C1310       C  0.09015293  0.09061308  0.46354684     0.87690
C1311       C  0.15725395  0.15870290  0.37581433     0.87860
C1312       C  0.20283518  0.05608985  0.01994886     0.03100
C1313       C  0.18132679  0.03112080  0.03549092    -0.13050
C1314       C  0.19350105  0.01454031  0.06471574     0.00600
C1315       C  0.22724850  0.02177869  0.07678988    -0.11570
C1316       C  0.24835291  0.04641483  0.06138368     0.03100
C1317       C  0.23561261  0.06473511  0.03391776    -0.10990
H1318       H  0.15667184  0.02320837  0.02379426     0.08690
H1319       H  0.23830219  0.00645512  0.09707359     0.06220
H1320       H  0.25210292  0.08410188  0.02207377     0.06070
O1321       O  0.39956765  0.06363478  0.13912076    -0.74450
O1322       O  0.47699726  0.11759491  0.17161139    -0.74480
O1323       O  0.40674788  0.11749501  0.17905691    -0.74540
O1324       O  0.46821186  0.05804716  0.12536126    -0.74590
O1325       O  0.46208128  0.09127290  0.08042829    -0.74520
O1326       O  0.40431908  0.15252244  0.13444029    -0.74500
O1327       O  0.47403549  0.15023526  0.12587453    -0.74470
O1328       O  0.39431841  0.09913229  0.09500919    -0.74540
Ni1329     Ni  0.43934794  0.08781484  0.15540264     1.25410
Ni1330     Ni  0.43469520  0.12459424  0.10720635     1.25360
C1331       C  0.38360473  0.07367494  0.11256761     0.87730
C1332       C  0.48060668  0.14713112  0.15783556     0.87660
C1333       C  0.39359747  0.14348230  0.16407935     0.87690
C1334       C  0.46527878  0.06112713  0.09273662     0.87860
O1335       O  0.09018997  0.13074077  0.88306675    -0.74450
O1336       O  0.13682101  0.07764137  0.81167645    -0.74480
O1337       O  0.14214396  0.08368602  0.87822857    -0.74540
O1338       O  0.07940286  0.12990479  0.81661267    -0.74590
O1339       O  0.11902449  0.17116993  0.80994683    -0.74520
O1340       O  0.18312351  0.12430962  0.87057319    -0.74500
O1341       O  0.17638512  0.11867010  0.80393994    -0.74470
O1342       O  0.13153482  0.17093252  0.87511717    -0.74540
Ni1343     Ni  0.11048975  0.10395260  0.84668233     1.25410
Ni1344     Ni  0.15392493  0.14760630  0.83854071     1.25360
C1345       C  0.10494594  0.15849693  0.89188111     0.87730
C1346       C  0.16865618  0.08682656  0.80239061     0.87660
C1347       C  0.17142323  0.09803721  0.88628330     0.87690
C1348       C  0.08609464  0.16117069  0.80913237     0.87860
O1349       O  0.07178989  0.86799456  0.14845925    -0.74450
O1350       O  0.12909609  0.80722148  0.09206634    -0.74480
O1351       O  0.07212108  0.80119903  0.14525675    -0.74540
O1352       O  0.12364511  0.87369205  0.10125439    -0.74590
O1353       O  0.16609980  0.87112608  0.14033440    -0.74520
O1354       O  0.11200117  0.80135187  0.18616639    -0.74500
O1355       O  0.16888889  0.80379642  0.13316830    -0.74470
O1356       O  0.11399345  0.86766272  0.18791012    -0.74540
Ni1357     Ni  0.09775428  0.83671843  0.12016287     1.25410
Ni1358     Ni  0.14195883  0.83492384  0.16317097     1.25360
C1359       C  0.08417056  0.87869723  0.17641187     0.87730
C1360       C  0.16133425  0.80036301  0.10146250     0.87660
C1361       C  0.07937773  0.79687206  0.17685483     0.87690
C1362       C  0.15210598  0.88524430  0.11449625     0.87860
O1363       O  0.79467078  0.09459213  0.13094030    -0.74450
O1364       O  0.87182288  0.13323747  0.07898863    -0.74480
O1365       O  0.86477724  0.08521021  0.12540513    -0.74540
O1366       O  0.80244046  0.14640758  0.07995300    -0.74590
O1367       O  0.80918693  0.18598376  0.11935643    -0.74520
O1368       O  0.86986075  0.12400240  0.16646970    -0.74500
O1369       O  0.87734004  0.17162410  0.12027548    -0.74470
O1370       O  0.79994403  0.13335778  0.17108388    -0.74540
Ni1371     Ni  0.83216006  0.11348431  0.10224330     1.25410
Ni1372     Ni  0.83833100  0.15534037  0.14592784     1.25360
C1373       C  0.79330045  0.10267601  0.16264817     0.87730
C1374       C  0.88818039  0.15800385  0.09233772     0.87660
C1375       C  0.87852042  0.09539234  0.15284359     0.87690
C1376       C  0.80525371  0.17791266  0.08804654     0.87860
C1377       C  0.28734647  0.05514535  0.10886455    -0.05810
C1378       C  0.28451642  0.05066181  0.07370756     0.00120
C1379       C  0.31569376  0.04536932  0.05276965    -0.08450
C1380       C  0.34902603  0.05011776  0.06738684    -0.05830
C1381       C  0.35140267  0.05719842  0.10206708     0.00110
C1382       C  0.32072680  0.05654055  0.12382591    -0.08360
C1383       C  0.32302088  0.05759682  0.16227160     0.62020
H1384       H  0.26298937  0.05721660  0.12456885     0.12710
H1385       H  0.37340382  0.04991440  0.05158259     0.12730
C1386       C  0.31441237  0.03455279  0.01569319     0.62250
F1387       F  0.28950514  0.05441893  0.17815418    -0.22910
F1388       F  0.33743333  0.08791053  0.17254331    -0.20240
F1389       F  0.34458853  0.03094053  0.17295439    -0.19920
F1390       F  0.30505279  0.06189572  0.99557671    -0.19970
F1391       F  0.28978160  0.00880062  0.01188332    -0.20290
F1392       F  0.34761631  0.02232256  0.00401903    -0.22970
C1393       C  0.17598925  0.95659210  0.05505455    -0.05810
C1394       C  0.17714497  0.98355893  0.07795252     0.00120
C1395       C  0.17312322  0.97746966  0.11337417    -0.08450
C1396       C  0.16979968  0.94389696  0.12462292    -0.05830
C1397       C  0.16663437  0.91719749  0.10143929     0.00110
C1398       C  0.17057395  0.92346559  0.06628378    -0.08360
C1399       C  0.16400309  0.89642204  0.04051965     0.62020
H1400       H  0.17992598  0.96161525  0.02814162     0.12710
H1401       H  0.16634316  0.93891518  0.15161904     0.12730
C1402       C  0.17183832  0.00545952  0.13994748     0.62250
F1403       F  0.17707738  0.90518904  0.00846469    -0.22910
F1404       F  0.12718500  0.89314927  0.03976335    -0.20240
F1405       F  0.18012752  0.86596078  0.04959278    -0.19920
F1406       F  0.16773109  0.03742614  0.12578320    -0.19970
F1407       F  0.20324755  0.00449331  0.15811579    -0.20290
F1408       F  0.14287404  0.00041978  0.16216100    -0.22970
C1409       C  0.18408787  0.11183390  0.94456783    -0.05810
C1410       C  0.18759303  0.08796421  0.91812733     0.00120
C1411       C  0.19775210  0.05403484  0.92494808    -0.08450
C1412       C  0.20232153  0.04452056  0.95888567    -0.05830
C1413       C  0.19585488  0.06778335  0.98548992     0.00110
C1414       C  0.18667783  0.10194950  0.97857588    -0.08360
C1415       C  0.17714472  0.12696624  0.00696506     0.62020
H1416       H  0.17571645  0.13761222  0.93854264     0.12710
H1417       H  0.21053986  0.01873834  0.96502985     0.12730
C1418       C  0.20445767  0.02856273  0.89644859     0.62250
F1419       F  0.16535103  0.15795291  0.99446455    -0.22910
F1420       F  0.20685491  0.13283477  0.02646403    -0.20240
F1421       F  0.14985513  0.11378518  0.02742769    -0.19920
F1422       F  0.22855624  0.04197623  0.87282156    -0.19970
F1423       F  0.17255935  0.02144597  0.88070285    -0.20290
F1424       F  0.21885262  0.99827639  0.90830217    -0.22970
C1425       C  0.17676828  0.14537816  0.31813198    -0.05810
C1426       C  0.16864093  0.17082099  0.34229755     0.00120
C1427       C  0.16918003  0.20549970  0.33293212    -0.08450
C1428       C  0.17957795  0.21340669  0.29949342    -0.05830
C1429       C  0.18830812  0.18782114  0.27561697     0.00110
C1430       C  0.18561557  0.15321469  0.28455803    -0.08360
C1431       C  0.19198544  0.12375407  0.26001599     0.62020
H1432       H  0.17509674  0.11876922  0.32526737     0.12710
H1433       H  0.18236158  0.23978168  0.29203252     0.12730
C1434       C  0.16051676  0.23397252  0.35804672     0.62250
F1435       F  0.16439489  0.10077236  0.26390748    -0.22910
F1436       F  0.22415529  0.10749631  0.26732187    -0.20240
F1437       F  0.19286748  0.13374250  0.22632635    -0.19920
F1438       F  0.18088143  0.22981203  0.38672046    -0.19970
F1439       F  0.12427299  0.23373204  0.36709725    -0.20290
F1440       F  0.16808842  0.26560853  0.34438287    -0.22970
C1441       C  0.32227173  0.18261539  0.22202389    -0.05810
C1442       C  0.29437099  0.18523518  0.19878496     0.00120
C1443       C  0.29906137  0.17309016  0.16523134    -0.08450
C1444       C  0.33337836  0.16307714  0.15463074    -0.05830
C1445       C  0.36131545  0.15994192  0.17770022     0.00110
C1446       C  0.35566302  0.16837022  0.21223415    -0.08360
C1447       C  0.38456247  0.16293307  0.23814180     0.62020
H1448       H  0.31738299  0.19125397  0.24789776     0.12710
H1449       H  0.33757108  0.15469356  0.12851652     0.12730
C1450       C  0.26890777  0.16833133  0.14027621     0.62250
F1451       F  0.37471598  0.17723536  0.26909821    -0.22910
F1452       F  0.41606055  0.17781641  0.22669145    -0.20240
F1453       F  0.39050827  0.12852178  0.24315351    -0.19920
F1454       F  0.27144418  0.19288513  0.11523794    -0.19970
F1455       F  0.23499082  0.16988705  0.15555650    -0.20290
F1456       F  0.27239236  0.13660792  0.12516612    -0.22970
C1457       C  0.01081961  0.06846671  0.33380987    -0.05810
C1458       C  0.02815989  0.04606185  0.31089591     0.00120
C1459       C  0.06646791  0.04588948  0.30788009    -0.08450
C1460       C  0.08547342  0.06216313  0.33311300    -0.05830
C1461       C  0.06792593  0.08377198  0.35665906     0.00110
C1462       C  0.03032948  0.08999821  0.35438570    -0.08360
C1463       C  0.01059288  0.11932534  0.37227809     0.62020
H1464       H  0.98171142  0.06939949  0.33530053     0.12710
H1465       H  0.11463370  0.05970804  0.33298211     0.12730
C1466       C  0.08861450  0.03113205  0.27810753     0.62250
F1467       F  0.97532631  0.12207244  0.36232488    -0.22910
F1468       F  0.02665714  0.14978637  0.36360125    -0.20240
F1469       F  0.01069585  0.11480835  0.40713524    -0.19920
F1470       F  0.06870500  0.02712145  0.24923513    -0.19970
F1471       F  0.10373151  0.00024896  0.28729583    -0.20290
F1472       F  0.11621781  0.05295443  0.26939719    -0.22970
C1473       C  0.91544646  0.02438009  0.20225345    -0.05810
C1474       C  0.94138670  0.04155570  0.22109027     0.00120
C1475       C  0.95256489  0.07454714  0.21040046    -0.08450
C1476       C  0.93111466  0.09159336  0.18743271    -0.05830
C1477       C  0.90452686  0.07451693  0.17005540     0.00110
C1478       C  0.90101140  0.03916650  0.17345151    -0.08360
C1479       C  0.88728742  0.01680750  0.14521179     0.62020
H1480       H  0.90824384  0.99852751  0.20865809     0.12710
H1481       H  0.93567076  0.11831998  0.18221201     0.12730
C1482       C  0.98762060  0.09149381  0.21996804     0.62250
F1483       F  0.89338437  0.98273921  0.15197107    -0.22910
F1484       F  0.90556675  0.02448233  0.11516866    -0.20240
F1485       F  0.85099183  0.02158002  0.14069087    -0.19920
F1486       F  0.01511843  0.06771636  0.22278813    -0.19970
F1487       F  0.98300503  0.10940070  0.25001081    -0.20290
F1488       F  0.99863572  0.11431345  0.19507350    -0.22970
C1489       C  0.03038453  0.95637910  0.20111532    -0.05810
C1490       C  0.02211899  0.94906939  0.23537004     0.00120
C1491       C  0.03555287  0.91934476  0.25046962    -0.08450
C1492       C  0.05744964  0.89761097  0.23061159    -0.05830
C1493       C  0.06347385  0.90378725  0.19587622     0.00110
C1494       C  0.04993040  0.93365201  0.18059791    -0.08360
C1495       C  0.05689577  0.94227646  0.14333334     0.62020
H1496       H  0.02114882  0.98024202  0.19043355     0.12710
H1497       H  0.06894079  0.87503846  0.24210689     0.12730
C1498       C  0.02779400  0.90937993  0.28695393     0.62250
F1499       F  0.04540113  0.97492470  0.13548360    -0.22910
F1500       F  0.03880798  0.92000735  0.12288000    -0.20240
F1501       F  0.09330879  0.94010501  0.13578919    -0.19920
F1502       F  0.00151427  0.92882464  0.30345884    -0.19970
F1503       F  0.05945539  0.91148833  0.30449834    -0.20290
F1504       F  0.01554130  0.87662779  0.28754758    -0.22970
C1505       C  0.18902521  0.29815554  0.21429024    -0.05810
C1506       C  0.20157974  0.27543626  0.18908826     0.00120
C1507       C  0.20476416  0.28610742  0.15484318    -0.08450
C1508       C  0.19738657  0.32016337  0.14755519    -0.05830
C1509       C  0.18285107  0.34228516  0.17244861     0.00110
C1510       C  0.17741629  0.33089493  0.20639664    -0.08360
C1511       C  0.15852108  0.35195521  0.23421946     0.62020
H1512       H  0.18746985  0.28963465  0.24044298     0.12710
H1513       H  0.20053990  0.32892852  0.12153115     0.12730
C1514       C  0.21417953  0.26248149  0.12532791     0.62250
F1515       F  0.16192087  0.33744364  0.26606955    -0.22910
F1516       F  0.12211871  0.35460280  0.22783476    -0.20240
F1517       F  0.17299707  0.38394254  0.23555264    -0.19920
F1518       F  0.20579239  0.22914319  0.13278444    -0.19970
F1519       F  0.25052192  0.26479733  0.11715622    -0.20290
F1520       F  0.19477419  0.27160550  0.09707576    -0.22970
C1521       C  0.04929643  0.36409104  0.09242701    -0.05810
C1522       C  0.08085555  0.37571530  0.07655504     0.00120
C1523       C  0.08953343  0.36494711  0.04294730    -0.08450
C1524       C  0.06866429  0.33910753  0.02930983    -0.05830
C1525       C  0.04579397  0.31956530  0.05048687     0.00110
C1526       C  0.03517208  0.33301814  0.08306028    -0.08360
C1527       C  0.01620196  0.31320764  0.11126984     0.62020
H1528       H  0.03997377  0.37579886  0.11598676     0.12710
H1529       H  0.07401849  0.33078126  0.00346246     0.12730
C1530       C  0.12155527  0.37819874  0.02228511     0.62250
F1531       F  0.01735803  0.32939401  0.14250882    -0.22910
F1532       F  0.03407492  0.28271935  0.11489725    -0.20240
F1533       F  0.98027973  0.30857450  0.10475571    -0.19920
F1534       F  0.15332901  0.36604639  0.03569016    -0.19970
F1535       F  0.12133935  0.41336122  0.02237388    -0.20290
F1536       F  0.12083829  0.36756453  0.98883987    -0.22970
C1537       C  0.08680284  0.18204144  0.98287713    -0.05810
C1538       C  0.08184272  0.21752462  0.98002408     0.00120
C1539       C  0.08477861  0.23310110  0.94762286    -0.08450
C1540       C  0.09225379  0.21240184  0.91946904    -0.05830
C1541       C  0.09284426  0.17699649  0.92212822     0.00110
C1542       C  0.08807211  0.16119033  0.95406020    -0.08360
C1543       C  0.08101437  0.12332282  0.95768940     0.62020
H1544       H  0.08399231  0.17057861  0.00783319     0.12710
H1545       H  0.09628057  0.22360431  0.89452259     0.12730
C1546       C  0.07815069  0.27078771  0.94178559     0.62250
F1547       F  0.07631650  0.11377385  0.99135839    -0.22910
F1548       F  0.10918270  0.10431904  0.94394007    -0.20240
F1549       F  0.04986012  0.11550154  0.94093668    -0.19920
F1550       F  0.10359232  0.28956926  0.95822933    -0.19970
F1551       F  0.04386889  0.28013403  0.95324599    -0.20290
F1552       F  0.08090948  0.27868902  0.90765915    -0.22970
C1553       C  0.94375438  0.18751019  0.09898870    -0.05810
C1554       C  0.92036478  0.17188999  0.07673066     0.00120
C1555       C  0.92796328  0.17192154  0.04147916    -0.08450
C1556       C  0.95316536  0.19524144  0.02930765    -0.05830
C1557       C  0.97482046  0.21288149  0.05184019     0.00110
C1558       C  0.97301146  0.20544873  0.08692938    -0.08360
C1559       C  0.00146449  0.21346343  0.11250198     0.62020
H1560       H  0.94013312  0.18436188  0.12627339     0.12710
H1561       H  0.95737341  0.19871851  0.00217495     0.12730
C1562       C  0.91203725  0.14661500  0.01730217     0.62250
F1563       F  0.00821760  0.18497098  0.13214104    -0.22910
F1564       F  0.98859731  0.23911388  0.13375208    -0.20240
F1565       F  0.03391627  0.22235057  0.09729810    -0.19920
F1566       F  0.87601346  0.15393752  0.01271456    -0.19970
F1567       F  0.91588073  0.11397721  0.02996432    -0.20290
F1568       F  0.93005629  0.14723373  0.98617191    -0.22970
C1569       C  0.96185789  0.35212651  0.55652284    -0.05810
C1570       C  0.94755843  0.32070339  0.54670890     0.00120
C1571       C  0.93319347  0.29890148  0.57217857    -0.08450
C1572       C  0.92402509  0.31306317  0.60371500    -0.05830
C1573       C  0.93365809  0.34641525  0.61168236     0.00110
C1574       C  0.95817433  0.36366728  0.58999708    -0.08360
C1575       C  0.98129029  0.39280159  0.60175884     0.62020
H1576       H  0.97563199  0.36804077  0.53802950     0.12710
H1577       H  0.90853040  0.29818967  0.62196638     0.12730
C1578       C  0.92868239  0.26092304  0.56772048     0.62250
F1579       F  0.01197307  0.39562326  0.58121182    -0.22910
F1580       F  0.99247963  0.38686124  0.63454514    -0.20240
F1581       F  0.96242496  0.42326407  0.60073659    -0.19920
F1582       F  0.95349226  0.24799647  0.54412190    -0.19970
F1583       F  0.89401708  0.25402053  0.55800760    -0.20290
F1584       F  0.93461427  0.24431653  0.59808763    -0.22970
C1585       C  0.90793233  0.22171799  0.47508853    -0.05810
C1586       C  0.90792742  0.24892827  0.45195167     0.00120
C1587       C  0.90040031  0.24276755  0.41746462    -0.08450
C1588       C  0.89769794  0.20911525  0.40665074    -0.05830
C1589       C  0.90010925  0.18187647  0.42953775     0.00110
C1590       C  0.90466376  0.18803162  0.46438601    -0.08360
C1591       C  0.90922597  0.15921257  0.48953887     0.62020
H1592       H  0.91372622  0.22663982  0.50126836     0.12710
H1593       H  0.89293358  0.20407690  0.38003302     0.12730
C1594       C  0.89590633  0.27062463  0.39118392     0.62250
F1595       F  0.91977220  0.17085912  0.52089852    -0.22910
F1596       F  0.93549323  0.13672655  0.47735160    -0.20240
F1597       F  0.87696983  0.14242281  0.49413037    -0.19920
F1598       F  0.92394794  0.26861528  0.36738777    -0.19970
F1599       F  0.89516582  0.30278426  0.40546004    -0.20290
F1600       F  0.86374127  0.26621154  0.37480313    -0.22970
C1601       C  0.06532878  0.33838760  0.40989090    -0.05810
C1602       C  0.09272919  0.32121180  0.42702477     0.00120
C1603       C  0.08460114  0.29458476  0.44956551    -0.08450
C1604       C  0.04855550  0.28802545  0.45714567    -0.05830
C1605       C  0.02131863  0.30807311  0.44311224     0.00110
C1606       C  0.02918758  0.33304239  0.41853162    -0.08360
C1607       C  0.99975650  0.35466698  0.40292266     0.62020
H1608       H  0.07253303  0.35683158  0.39053044     0.12710
H1609       H  0.04134624  0.26878474  0.47575637     0.12730
C1610       C  0.11390468  0.27420626  0.46590113     0.62250
F1611       F  0.01362061  0.37774537  0.37964219    -0.22910
F1612       F  0.98121457  0.37268450  0.42816006    -0.20240
F1613       F  0.97600397  0.33401509  0.38632215    -0.19920
F1614       F  0.13182927  0.29520352  0.48767082    -0.19970
F1615       F  0.13727193  0.26199809  0.44080174    -0.20290
F1616       F  0.10060320  0.24682707  0.48421276    -0.22970
C1617       C  0.97317785  0.55371747  0.31740700    -0.05810
C1618       C  0.94901571  0.52711664  0.31509674     0.00120
C1619       C  0.91281160  0.53165976  0.32602648    -0.08450
C1620       C  0.90170535  0.56433840  0.33681614    -0.05830
C1621       C  0.92628209  0.59133476  0.33826292     0.00110
C1622       C  0.96270773  0.58557440  0.32925681    -0.08360
C1623       C  0.99211169  0.61130725  0.32968022     0.62020
H1624       H  0.00112953  0.54948197  0.30944041     0.12710
H1625       H  0.87398032  0.56884773  0.34511855     0.12730
C1626       C  0.88704982  0.50206740  0.32816875     0.62250
F1627       F  0.01563266  0.60279123  0.35503591    -0.22910
F1628       F  0.98020794  0.64427231  0.33461330    -0.20240
F1629       F  0.01001250  0.60921999  0.29859507    -0.19920
F1630       F  0.90205934  0.47618568  0.34722047    -0.19970
F1631       F  0.88034764  0.49000567  0.29601662    -0.20290
F1632       F  0.85440659  0.51144026  0.34348143    -0.22970
C1633       C  0.95651181  0.41105668  0.22253102    -0.05810
C1634       C  0.96985120  0.44404188  0.22211804     0.00120
C1635       C  0.97617226  0.46152520  0.19118897    -0.08450
C1636       C  0.96764381  0.44504689  0.16100749    -0.05830
C1637       C  0.95298660  0.41245422  0.16160288     0.00110
C1638       C  0.94716561  0.39508127  0.19257034    -0.08360
C1639       C  0.92844552  0.36120386  0.19416136     0.62020
H1640       H  0.95222400  0.39848904  0.24678950     0.12710
H1641       H  0.97089175  0.45794054  0.13683595     0.12730
C1642       C  0.99162297  0.49710241  0.19005219     0.62250
F1643       F  0.92684617  0.34806679  0.22679776    -0.22910
F1644       F  0.94677979  0.33806711  0.17349803    -0.20240
F1645       F  0.89358889  0.36557128  0.18336280    -0.19920
F1646       F  0.02467271  0.49712171  0.20535932    -0.19970
F1647       F  0.96856590  0.51966128  0.20689010    -0.20290
F1648       F  0.99654067  0.50863048  0.15703586    -0.22970
C1649       C  0.05231295  0.44533448  0.35304609    -0.05810
C1650       C  0.05265456  0.44916748  0.31762527     0.00120
C1651       C  0.08486235  0.44203867  0.29851627    -0.08450
C1652       C  0.11219541  0.42396029  0.31441701    -0.05830
C1653       C  0.11099254  0.41915539  0.34957831     0.00110
C1654       C  0.08255845  0.43363895  0.36978070    -0.08360
C1655       C  0.08380655  0.43788268  0.40827753     0.62020
H1656       H  0.02809475  0.45130393  0.36781959     0.12710
H1657       H  0.13555879  0.41512586  0.29961162     0.12730
C1658       C  0.09264783  0.45458112  0.26264401     0.62250
F1659       F  0.05274480  0.45327381  0.42154472    -0.22910
F1660       F  0.11240644  0.45843888  0.41612943    -0.20240
F1661       F  0.08777401  0.40692981  0.42428270    -0.19920
F1662       F  0.07019127  0.48133405  0.25407846    -0.19970
F1663       F  0.08910998  0.42821596  0.23975965    -0.20290
F1664       F  0.12762295  0.46637256  0.26011972    -0.22970
C1665       C  0.81549847  0.44027838  0.54549029    -0.05810
C1666       C  0.78607451  0.46255565  0.54993324     0.00120
C1667       C  0.77514741  0.47408576  0.58250134    -0.08450
C1668       C  0.79376518  0.46139590  0.61053278    -0.05830
C1669       C  0.82299776  0.43873859  0.60582749     0.00110
C1670       C  0.83437881  0.42818298  0.57300572    -0.08360
C1671       C  0.86640855  0.40438874  0.56707874     0.62020
H1672       H  0.82381594  0.43274839  0.51993759     0.12710
H1673       H  0.78573373  0.46891224  0.63608009     0.12730
C1674       C  0.74405734  0.49913122  0.58710478     0.62250
F1675       F  0.87410858  0.39904561  0.53286062    -0.22910
F1676       F  0.85941898  0.37323291  0.58187508    -0.20240
F1677       F  0.89639383  0.41838030  0.58125728    -0.19920
F1678       F  0.71350067  0.48588160  0.57299129    -0.19970
F1679       F  0.75226887  0.52944243  0.57111163    -0.20290
F1680       F  0.73670115  0.50606857  0.62102978    -0.22970
C1681       C  0.84077163  0.54380054  0.45962151    -0.05810
C1682       C  0.80447496  0.53744900  0.45509091     0.00120
C1683       C  0.78229802  0.56045835  0.43750760    -0.08450
C1684       C  0.79753279  0.59058717  0.42556386    -0.05830
C1685       C  0.83419448  0.59722446  0.42971871     0.00110
C1686       C  0.85666745  0.57305403  0.44647363    -0.08360
C1687       C  0.89730361  0.57655412  0.44947056     0.62020
H1688       H  0.85660453  0.52510907  0.47318058     0.12710
H1689       H  0.78100765  0.60895185  0.41232739     0.12730
C1690       C  0.74288964  0.55313135  0.43146891     0.62250
F1691       F  0.91315567  0.54791190  0.46351300    -0.22910
F1692       F  0.90493305  0.60373781  0.47012362    -0.20240
F1693       F  0.91306376  0.58110967  0.41767522    -0.19920
F1694       F  0.72486234  0.54760849  0.46212322    -0.19970
F1695       F  0.74002312  0.52473035  0.41110076    -0.20290
F1696       F  0.72609870  0.57983603  0.41525469    -0.22970
C1697       C  0.69247308  0.39273243  0.43694916    -0.05810
C1698       C  0.68030247  0.41016286  0.40802876     0.00120
C1699       C  0.70499626  0.43093351  0.38963804    -0.08450
C1700       C  0.73618025  0.44066750  0.40584517    -0.05830
C1701       C  0.74446341  0.42842388  0.43835435     0.00110
C1702       C  0.72612028  0.39936530  0.45026275    -0.08360
C1703       C  0.74206245  0.37371267  0.47462565     0.62020
H1704       H  0.67643443  0.37284059  0.44861176     0.12710
H1705       H  0.75219631  0.45996196  0.39374093     0.12730
C1706       C  0.69934479  0.44306162  0.35343658     0.62250
F1707       F  0.74287884  0.34196632  0.45940138    -0.22910
F1708       F  0.72093606  0.37197126  0.50404181    -0.20240
F1709       F  0.77703357  0.38163296  0.48280565    -0.19920
F1710       F  0.67102652  0.46582692  0.35279853    -0.19970
F1711       F  0.69236635  0.41565079  0.33270994    -0.20290
F1712       F  0.72929010  0.45935338  0.33986996    -0.22970
C1713       C  0.78156904  0.20939200  0.32626416    -0.05810
C1714       C  0.78266166  0.20239986  0.29108621     0.00120
C1715       C  0.78896921  0.16912406  0.27947255    -0.08450
C1716       C  0.80033932  0.14494099  0.30283894    -0.05830
C1717       C  0.80382677  0.15324137  0.33713794     0.00110
C1718       C  0.79106088  0.18461164  0.34984716    -0.08360
C1719       C  0.78896308  0.19210003  0.38765009     0.62020
H1720       H  0.77504777  0.23490525  0.33505369     0.12710
H1721       H  0.80913677  0.12010698  0.29378261     0.12730
C1722       C  0.78513285  0.15778697  0.24321798     0.62250
F1723       F  0.77463128  0.22415764  0.39438734    -0.22910
F1724       F  0.82284536  0.19031564  0.40115861    -0.20240
F1725       F  0.76715962  0.16840949  0.40366151    -0.19920
F1726       F  0.81830197  0.14544785  0.23168035    -0.19970
F1727       F  0.77344351  0.18287891  0.22140682    -0.20290
F1728       F  0.75986961  0.13246079  0.24264912    -0.22970
C1729       C  0.66321402  0.32776395  0.28267135    -0.05810
C1730       C  0.66201717  0.32445928  0.31817361     0.00120
C1731       C  0.69231478  0.31272550  0.33587250    -0.08450
C1732       C  0.72421585  0.30768982  0.31729668    -0.05830
C1733       C  0.72472868  0.30883282  0.28169430     0.00110
C1734       C  0.69430736  0.31957571  0.26382623    -0.08360
C1735       C  0.69457245  0.32192639  0.22533462     0.62020
H1736       H  0.63956986  0.33732566  0.26994527     0.12710
H1737       H  0.74810071  0.29854457  0.32993144     0.12730
C1738       C  0.69095297  0.30432208  0.37356179     0.62250
F1739       F  0.66171087  0.33329245  0.21364819    -0.22910
F1740       F  0.70193342  0.29033520  0.21112798    -0.20240
F1741       F  0.72053177  0.34463550  0.21445338    -0.19920
F1742       F  0.66459153  0.28043839  0.37996011    -0.19970
F1743       F  0.68335414  0.33320497  0.39228125    -0.20290
F1744       F  0.72334001  0.29092612  0.38453575    -0.22970
C1745       C  0.79898399  0.29767173  0.17352467    -0.05810
C1746       C  0.82120235  0.28249412  0.19778183     0.00120
C1747       C  0.85894898  0.28115064  0.19212170    -0.08450
C1748       C  0.87287845  0.29662124  0.16265578    -0.05830
C1749       C  0.85105528  0.31687973  0.14180944     0.00110
C1750       C  0.81317162  0.31712005  0.14694876    -0.08360
C1751       C  0.78753015  0.33831777  0.12580170     0.62020
H1752       H  0.77003451  0.29703288  0.17772410     0.12710
H1753       H  0.90158280  0.29528169  0.15731773     0.12730
C1754       C  0.88478742  0.26561207  0.21734469     0.62250
F1755       F  0.75181784  0.33054050  0.13268884    -0.22910
F1756       F  0.79436637  0.33228008  0.09178090    -0.20240
F1757       F  0.79162658  0.37251404  0.13271508    -0.19920
F1758       F  0.88332321  0.23056933  0.21587220    -0.19970
F1759       F  0.87612016  0.27659139  0.24997315    -0.20290
F1760       F  0.92008634  0.27475426  0.21021005    -0.22970
C1761       C  0.93107427  0.61025458  0.68061032    -0.05810
C1762       C  0.90063051  0.58991007  0.68438177     0.00120
C1763       C  0.90305643  0.55648494  0.69678987    -0.08450
C1764       C  0.93695145  0.54409675  0.70517203    -0.05830
C1765       C  0.96751467  0.56416670  0.70045442     0.00110
C1766       C  0.96509290  0.59747450  0.68734302    -0.08360
C1767       C  0.99705186  0.62011961  0.67922859     0.62020
H1768       H  0.92847356  0.63578626  0.67032395     0.12710
H1769       H  0.93992493  0.51888795  0.71599412     0.12730
C1770       C  0.87013196  0.53489173  0.70254441     0.62250
F1771       F  0.99406474  0.63306161  0.64669405    -0.22910
F1772       F  0.02978621  0.60307674  0.68050306    -0.20240
F1773       F  0.99694165  0.64695178  0.70195009    -0.19920
F1774       F  0.85472664  0.52761328  0.67182692    -0.19970
F1775       F  0.84569406  0.55229573  0.72324185    -0.20290
F1776       F  0.87856896  0.50456779  0.71838190    -0.22970
C1777       C  0.07946518  0.47335580  0.67508056    -0.05810
C1778       C  0.05816089  0.47383323  0.70463831     0.00120
C1779       C  0.04698177  0.44331205  0.72049243    -0.08450
C1780       C  0.05990068  0.41245083  0.70686502    -0.05830
C1781       C  0.08183407  0.41204761  0.67747301     0.00110
C1782       C  0.09118612  0.44269146  0.66082730    -0.08360
C1783       C  0.11539407  0.44297834  0.62946740     0.62020
H1784       H  0.08663366  0.49731205  0.66323905     0.12710
H1785       H  0.05257486  0.38852893  0.71859919     0.12730
C1786       C  0.02078989  0.44352349  0.75076108     0.62250
F1787       F  0.12282603  0.47558405  0.61822476    -0.22910
F1788       F  0.09976620  0.42549819  0.60329192    -0.20240
F1789       F  0.14727249  0.42747871  0.63774369    -0.19920
F1790       F  0.98897830  0.45963483  0.74201745    -0.19970
F1791       F  0.03557525  0.46059965  0.77761922    -0.20290
F1792       F  0.01263962  0.41091859  0.76148981    -0.22970
C1793       C  0.06313994  0.54124185  0.81513710    -0.05810
C1794       C  0.05610730  0.56566056  0.79025173     0.00120
C1795       C  0.05750529  0.60076871  0.79841305    -0.08450
C1796       C  0.06477037  0.60965428  0.83181705    -0.05830
C1797       C  0.07504206  0.58516952  0.85569236     0.00110
C1798       C  0.07510622  0.55006756  0.84703439    -0.08360
C1799       C  0.08637422  0.52015533  0.86908530     0.62020
H1800       H  0.06031361  0.51447778  0.80930191     0.12710
H1801       H  0.06560658  0.63639898  0.83853967     0.12730
C1802       C  0.05315591  0.62948506  0.77288216     0.62250
F1803       F  0.11009023  0.49928940  0.85074479    -0.22910
F1804       F  0.05609545  0.50159349  0.87766513    -0.20240
F1805       F  0.10328252  0.52897223  0.89832726    -0.19920
F1806       F  0.01776872  0.64091077  0.77349660    -0.19970
F1807       F  0.06320024  0.61929263  0.74036197    -0.20290
F1808       F  0.07467266  0.65663829  0.78108881    -0.22970
C1809       C  0.28439854  0.58358472  0.58174385    -0.05810
C1810       C  0.29099575  0.55090885  0.56865957     0.00120
C1811       C  0.32507649  0.53501113  0.57235602    -0.08450
C1812       C  0.34967003  0.55042255  0.59327137    -0.05830
C1813       C  0.34337756  0.58329649  0.60551935     0.00110
C1814       C  0.31111444  0.60116990  0.59821105    -0.08360
C1815       C  0.30502337  0.63863753  0.60635978     0.62020
H1816       H  0.25826341  0.59552912  0.57847203     0.12710
H1817       H  0.37544634  0.53794391  0.59752125     0.12730
C1818       C  0.33724234  0.50266293  0.55437273     0.62250
F1819       F  0.26938368  0.64854601  0.60271514    -0.22910
F1820       F  0.32591476  0.65821184  0.58454558    -0.20240
F1821       F  0.31413162  0.64526281  0.63933487    -0.19920
F1822       F  0.31631992  0.49484622  0.52692727    -0.19970
F1823       F  0.33630095  0.47627969  0.57754438    -0.20290
F1824       F  0.37216622  0.50632015  0.54198909    -0.22970
C1825       C  0.21012280  0.40618763  0.60770688    -0.05810
C1826       C  0.18885663  0.38678736  0.58623294     0.00120
C1827       C  0.18628725  0.39582662  0.55162988    -0.08450
C1828       C  0.20121167  0.42665252  0.54124163    -0.05830
C1829       C  0.21410964  0.44983832  0.56509795     0.00110
C1830       C  0.21834918  0.43958876  0.59942201    -0.08360
C1831       C  0.22620015  0.46361553  0.62887722     0.62020
H1832       H  0.21428434  0.39787762  0.63357902     0.12710
H1833       H  0.20035059  0.43392154  0.51474242     0.12730
C1834       C  0.16764104  0.37393902  0.52586083     0.62250
F1835       F  0.20980446  0.45266243  0.65885708    -0.22910
F1836       F  0.21298479  0.49611392  0.62310202    -0.20240
F1837       F  0.26287305  0.46451727  0.63409163    -0.19920
F1838       F  0.13064477  0.37761982  0.52958327    -0.19970
F1839       F  0.17739684  0.34027788  0.53025365    -0.20290
F1840       F  0.17727099  0.38302869  0.49294283    -0.22970
C1841       C  0.31921771  0.71273836  0.72623085    -0.05810
C1842       C  0.29046704  0.68985257  0.72420758     0.00120
C1843       C  0.29728559  0.65530569  0.71569029    -0.08450
C1844       C  0.33263512  0.64569631  0.70764398    -0.05830
C1845       C  0.35967060  0.66991950  0.70352793     0.00110
C1846       C  0.35387838  0.70352266  0.71459295    -0.08360
C1847       C  0.38361691  0.72932263  0.71318565     0.62020
H1848       H  0.31358914  0.73873995  0.73404588     0.12710
H1849       H  0.33850323  0.61956081  0.70039528     0.12730
C1850       C  0.26788125  0.62902840  0.71194785     0.62250
F1851       F  0.37363665  0.75932727  0.72948965    -0.22910
F1852       F  0.39197100  0.73662913  0.67975299    -0.20240
F1853       F  0.41377451  0.71620826  0.72858575    -0.19920
F1854       F  0.23986457  0.64223658  0.69331154    -0.19970
F1855       F  0.25547868  0.61910845  0.74374010    -0.20290
F1856       F  0.28040811  0.60007781  0.69512830    -0.22970
C1857       C  0.17365115  0.72007254  0.80712538    -0.05810
C1858       C  0.17164975  0.69698548  0.78024605     0.00120
C1859       C  0.16061756  0.66329114  0.78630540    -0.08450
C1860       C  0.15593815  0.65269609  0.82004940    -0.05830
C1861       C  0.16200450  0.67493238  0.84716109     0.00110
C1862       C  0.16955139  0.70949708  0.84080878    -0.08360
C1863       C  0.17882578  0.73380148  0.86891202     0.62020
H1864       H  0.18305896  0.74544960  0.80173892     0.12710
H1865       H  0.14788856  0.62682271  0.82553923     0.12730
C1866       C  0.15406543  0.63896082  0.75722647     0.62250
F1867       F  0.18431369  0.76651177  0.85699952    -0.22910
F1868       F  0.21042032  0.72234667  0.88284065    -0.20240
F1869       F  0.15163987  0.73538277  0.89352629    -0.19920
F1870       F  0.18604566  0.63041253  0.74073442    -0.19970
F1871       F  0.13152114  0.65430496  0.73418590    -0.20290
F1872       F  0.13826400  0.60918415  0.76852487    -0.22970
C1873       C  0.21872416  0.78983246  0.66333424    -0.05810
C1874       C  0.20887630  0.78440708  0.69754893     0.00120
C1875       C  0.20343437  0.81281033  0.71943250    -0.08450
C1876       C  0.20182026  0.84517485  0.70484736    -0.05830
C1877       C  0.20779242  0.85012517  0.66988341     0.00110
C1878       C  0.22168499  0.82267618  0.64994860    -0.08360
C1879       C  0.24251452  0.82616344  0.61642094     0.62020
H1880       H  0.22651910  0.76823746  0.64749312     0.12710
H1881       H  0.19357591  0.86676650  0.72046183     0.12730
C1882       C  0.19944651  0.80968047  0.75783592     0.62250
F1883       F  0.22273534  0.81380578  0.58994811    -0.22910
F1884       F  0.25242542  0.85919059  0.60948739    -0.20240
F1885       F  0.27398447  0.80702455  0.61807709    -0.19920
F1886       F  0.22609049  0.78843648  0.77017533    -0.19970
F1887       F  0.16588806  0.79714940  0.76656655    -0.20290
F1888       F  0.20265048  0.84090455  0.77365485    -0.22970
C1889       C  0.21661808  0.55381601  0.46200033    -0.05810
C1890       C  0.19233537  0.54800414  0.48904518     0.00120
C1891       C  0.15577550  0.55760543  0.48688057    -0.08450
C1892       C  0.14436573  0.57128469  0.45610080    -0.05830
C1893       C  0.16892706  0.57720580  0.42898354     0.00110
C1894       C  0.20594697  0.56995407  0.43247294    -0.08360
C1895       C  0.23421214  0.57834433  0.40549441     0.62020
H1896       H  0.24455912  0.54617576  0.46476722     0.12710
H1897       H  0.11623522  0.57817351  0.45319758     0.12730
C1898       C  0.12959780  0.55489659  0.51702535     0.62250
F1899       F  0.26812979  0.56777353  0.41498680    -0.22910
F1900       F  0.23543759  0.61309093  0.40028440    -0.20240
F1901       F  0.22628579  0.56209440  0.37568761    -0.19920
F1902       F  0.14355005  0.57115437  0.54486026    -0.19970
F1903       F  0.12361596  0.52121439  0.52498021    -0.20290
F1904       F  0.09661153  0.56985651  0.51029385    -0.22970
C1905       C  0.06161135  0.73063326  0.44508836    -0.05810
C1906       C  0.04601863  0.71345664  0.47274619     0.00120
C1907       C  0.04550438  0.67742466  0.47343892    -0.08450
C1908       C  0.05790437  0.66001537  0.44452495    -0.05830
C1909       C  0.07487457  0.67718611  0.41751780     0.00110
C1910       C  0.07806644  0.71305244  0.41813739    -0.08360
C1911       C  0.09929388  0.73302618  0.39149585     0.62020
H1912       H  0.06158162  0.75819026  0.44524494     0.12710
H1913       H  0.05677889  0.63245227  0.44411792     0.12730
C1914       C  0.03392567  0.65629846  0.50412799     0.62250
F1915       F  0.09324640  0.76758416  0.39472102    -0.22910
F1916       F  0.08945354  0.72380067  0.35934488    -0.20240
F1917       F  0.13580856  0.72705038  0.39505129    -0.19920
F1918       F  0.99932725  0.64466454  0.49979311    -0.19970
F1919       F  0.03524265  0.67428824  0.53425137    -0.20290
F1920       F  0.05678767  0.62848512  0.50726955    -0.22970
C1921       C  0.92410479  0.71580686  0.53982679    -0.05810
C1922       C  0.95031925  0.73262813  0.55830721     0.00120
C1923       C  0.95443274  0.72534712  0.59355146    -0.08450
C1924       C  0.93020401  0.70294639  0.60872013    -0.05830
C1925       C  0.90728723  0.68370772  0.58906327     0.00110
C1926       C  0.90719635  0.68743835  0.55346085    -0.08360
C1927       C  0.89526201  0.65946725  0.52962279     0.62020
H1928       H  0.92179121  0.72129956  0.51297492     0.12710
H1929       H  0.92998157  0.69905630  0.63599449     0.12730
C1930       C  0.98473668  0.73874867  0.61516496     0.62250
F1931       F  0.90134009  0.66809255  0.49586896    -0.22910
F1932       F  0.85924838  0.65240874  0.53377674    -0.20240
F1933       F  0.91500713  0.63022045  0.53617819    -0.19920
F1934       F  0.97999739  0.77316548  0.62104252    -0.19970
F1935       F  0.01782249  0.73254897  0.59925760    -0.20290
F1936       F  0.98556852  0.72295001  0.64660937    -0.22970
C1937       C  0.07566884  0.79866523  0.57667433    -0.05810
C1938       C  0.05158449  0.80915608  0.55206254     0.00120
C1939       C  0.04776474  0.84337242  0.54273318    -0.08450
C1940       C  0.06934204  0.86719925  0.55864331    -0.05830
C1941       C  0.09358230  0.85669228  0.58341743     0.00110
C1942       C  0.09680703  0.82223431  0.59293326    -0.08360
C1943       C  0.12318819  0.81055823  0.61935502     0.62020
H1944       H  0.07763480  0.77188199  0.58298148     0.12710
H1945       H  0.06735422  0.89391245  0.55210804     0.12730
C1946       C  0.02149226  0.85361859  0.51563309     0.62250
F1947       F  0.12415355  0.77550841  0.62277743    -0.22910
F1948       F  0.11390734  0.82463089  0.65060303    -0.20240
F1949       F  0.15711138  0.82102401  0.60958813    -0.19920
F1950       F  0.98687719  0.84466796  0.52528172    -0.19970
F1951       F  0.03075924  0.83739302  0.48543347    -0.20290
F1952       F  0.02150817  0.88802064  0.51022646    -0.22970
C1953       C  0.65794877  0.32822568  0.68753230    -0.05810
C1954       C  0.68414848  0.34992364  0.67374529     0.00120
C1955       C  0.72070961  0.34504148  0.68123941    -0.08450
C1956       C  0.72918093  0.32046106  0.70549188    -0.05830
C1957       C  0.70298153  0.29810787  0.71838390     0.00110
C1958       C  0.66646850  0.30241836  0.70981843    -0.08360
C1959       C  0.63629029  0.28012764  0.72333097     0.62020
H1960       H  0.63012903  0.33157658  0.68046230     0.12710
H1961       H  0.75699794  0.31614856  0.71225656     0.12730
C1962       C  0.75070991  0.36350842  0.66259435     0.62250
F1963       F  0.60344856  0.28778209  0.70901894    -0.22910
F1964       F  0.63211632  0.28524311  0.75791279    -0.20240
F1965       F  0.64412415  0.24643468  0.71611563    -0.19920
F1966       F  0.74811808  0.39796206  0.66898607    -0.19970
F1967       F  0.74867459  0.35773049  0.62802644    -0.20290
F1968       F  0.78408935  0.35186502  0.67264992    -0.22970
C1969       C  0.65613767  0.17565530  0.83516177    -0.05810
C1970       C  0.68209860  0.17178027  0.86006302     0.00120
C1971       C  0.71830422  0.18077893  0.85383337    -0.08450
C1972       C  0.72647785  0.19682743  0.82316966    -0.05830
C1973       C  0.70011333  0.20149955  0.79875786     0.00110
C1974       C  0.66483752  0.18955253  0.80382246    -0.08360
C1975       C  0.63608559  0.19199496  0.77721407     0.62020
H1976       H  0.62878886  0.16730822  0.84034949     0.12710
H1977       H  0.75353129  0.20570168  0.81775767     0.12730
C1978       C  0.74769360  0.17442713  0.87920096     0.62250
F1979       F  0.60825643  0.16963754  0.78391533    -0.22910
F1980       F  0.65033122  0.18432088  0.74526904    -0.20240
F1981       F  0.62172719  0.22444127  0.77745716    -0.19920
F1982       F  0.75181185  0.13991476  0.88496389    -0.19970
F1983       F  0.73865641  0.19074786  0.90925759    -0.20290
F1984       F  0.78063683  0.18662516  0.86768536    -0.22970
C1985       C  0.78426542  0.19898690  0.66713026    -0.05810
C1986       C  0.78401644  0.20053408  0.70267633     0.00120
C1987       C  0.81588312  0.19438327  0.72093221    -0.08450
C1988       C  0.84629205  0.18339866  0.70266288    -0.05830
C1989       C  0.84640576  0.18154940  0.66725222     0.00110
C1990       C  0.81588557  0.19144845  0.64871255    -0.08360
C1991       C  0.81678484  0.19568838  0.61028012     0.62020
H1992       H  0.75984674  0.20564057  0.65399175     0.12710
H1993       H  0.87062065  0.17658999  0.71590978     0.12730
C1994       C  0.81876220  0.20050365  0.75900512     0.62250
F1995       F  0.78316120  0.20401950  0.59800253    -0.22910
F1996       F  0.82835791  0.16612347  0.59445365    -0.20240
F1997       F  0.84002877  0.22159988  0.60143227    -0.19920
F1998       F  0.80072476  0.17547320  0.77690438    -0.19970
F1999       F  0.80441498  0.23208758  0.76764604    -0.20290
F2000       F  0.85427814  0.19984608  0.76905945    -0.22970
C2001       C  0.46199517  0.22794415  0.55690455    -0.05810
C2002       C  0.49204659  0.20722433  0.56183290     0.00120
C2003       C  0.49055470  0.17972203  0.58469112    -0.08450
C2004       C  0.45693016  0.17140475  0.59918652    -0.05830
C2005       C  0.42603813  0.19086363  0.59216918     0.00110
C2006       C  0.42903710  0.22075606  0.57267880    -0.08360
C2007       C  0.39852725  0.24480902  0.56572174     0.62020
H2008       H  0.46422572  0.24967519  0.53998367     0.12710
H2009       H  0.45423525  0.14894598  0.61495551     0.12730
C2010       C  0.52394743  0.15894660  0.59258873     0.62250
F2011       F  0.40945319  0.27761553  0.57171374    -0.22910
F2012       F  0.36833884  0.23884225  0.58590918    -0.20240
F2013       F  0.39037987  0.24180265  0.53188511    -0.19920
F2014       F  0.55066196  0.18005648  0.60379058    -0.19970
F2015       F  0.53621500  0.14202096  0.56363953    -0.20290
F2016       F  0.51709261  0.13539673  0.61790129    -0.22970
C2017       C  0.54264504  0.17552819  0.43978668    -0.05810
C2018       C  0.55399513  0.20800845  0.44922071     0.00120
C2019       C  0.56779714  0.23002626  0.42368900    -0.08450
C2020       C  0.57921282  0.21585396  0.39260712    -0.05830
C2021       C  0.57226273  0.18181036  0.38485545     0.00110
C2022       C  0.54913519  0.16289342  0.40698488    -0.08360
C2023       C  0.53323761  0.12872722  0.39776848     0.62020
H2024       H  0.53065722  0.15892798  0.45871041     0.12710
H2025       H  0.59390156  0.23147724  0.37440086     0.12730
C2026       C  0.56954358  0.26828250  0.42742568     0.62250
F2027       F  0.50670971  0.11899951  0.42105149    -0.22910
F2028       F  0.55966642  0.10359029  0.39696176    -0.20240
F2029       F  0.51740942  0.13109320  0.36644102    -0.19920
F2030       F  0.60485260  0.27806894  0.43134196    -0.19970
F2031       F  0.54838031  0.28007361  0.45445533    -0.20290
F2032       F  0.55657233  0.28335041  0.39843315    -0.22970
C2033       C  0.59774893  0.30575212  0.52296087    -0.05810
C2034       C  0.59826529  0.27732937  0.54469950     0.00120
C2035       C  0.60820793  0.28148650  0.57894940    -0.08450
C2036       C  0.61144314  0.31444453  0.59151058    -0.05830
C2037       C  0.60804868  0.34282003  0.57031276     0.00110
C2038       C  0.60303879  0.33869000  0.53518887    -0.08360
C2039       C  0.60139976  0.36892838  0.51123808     0.62020
H2040       H  0.59073392  0.30240677  0.49675315     0.12710
H2041       H  0.61781966  0.31803388  0.61801615     0.12730
C2042       C  0.61548010  0.25221854  0.60309280     0.62250
F2043       F  0.59304213  0.35927246  0.47857073    -0.22910
F2044       F  0.63438626  0.38485822  0.50968602    -0.20240
F2045       F  0.57523104  0.39177794  0.52278622    -0.19920
F2046       F  0.61630759  0.22102448  0.58682267    -0.19970
F2047       F  0.58918966  0.25191535  0.62865806    -0.20290
F2048       F  0.64864332  0.25660197  0.61767809    -0.22970
C2049       C  0.69157919  0.10021687  0.45850016    -0.05810
C2050       C  0.71163551  0.07009632  0.45704068     0.00120
C2051       C  0.71887442  0.05313486  0.42595842    -0.08450
C2052       C  0.70320127  0.06626048  0.39672556    -0.05830
C2053       C  0.68168718  0.09570345  0.39847526     0.00110
C2054       C  0.67631821  0.11355599  0.42944676    -0.08360
C2055       C  0.65241599  0.14497374  0.43239683     0.62020
H2056       H  0.68694970  0.11245426  0.48293973     0.12710
H2057       H  0.70754375  0.05374739  0.37244788     0.12730
C2058       C  0.74339686  0.02196566  0.42388894     0.62250
F2059       F  0.65057630  0.15785667  0.46515883    -0.22910
F2060       F  0.61814936  0.13623306  0.42356082    -0.20240
F2061       F  0.66513019  0.17034348  0.41114600    -0.19920
F2062       F  0.72847077  0.99564625  0.44250250    -0.19970
F2063       F  0.77664006  0.02969697  0.43680283    -0.20290
F2064       F  0.74874447  0.01088297  0.39074968    -0.22970
C2065       C  0.70048040  0.95784406  0.52646003    -0.05810
C2066       C  0.69835054  0.98576251  0.54832883     0.00120
C2067       C  0.68766871  0.98157744  0.58268591    -0.08450
C2068       C  0.68398272  0.94856772  0.59505171    -0.05830
C2069       C  0.68625841  0.92043811  0.57321011     0.00110
C2070       C  0.69238637  0.92532682  0.53782788    -0.08360
C2071       C  0.69158224  0.89813006  0.51076601     0.62020
H2072       H  0.70872304  0.96143915  0.50006858     0.12710
H2073       H  0.67686873  0.94489894  0.62168058     0.12730
C2074       C  0.67879822  0.01077900  0.60674708     0.62250
F2075       F  0.67044259  0.90924680  0.48437934    -0.22910
F2076       F  0.67739315  0.86828634  0.52256796    -0.20240
F2077       F  0.72621942  0.89202770  0.49824701    -0.19920
F2078       F  0.64520155  0.00568134  0.62180902    -0.19970
F2079       F  0.67765385  0.04197101  0.59055256    -0.20290
F2080       F  0.70427062  0.01167514  0.63170800    -0.22970
C2081       C  0.82816796  0.09433474  0.59595475    -0.05810
C2082       C  0.86009668  0.08838101  0.57715914     0.00120
C2083       C  0.85998067  0.07057021  0.54616999    -0.08450
C2084       C  0.82685389  0.06099193  0.53366570    -0.05830
C2085       C  0.79480485  0.06865953  0.55164476     0.00110
C2086       C  0.79495534  0.08567088  0.58315506    -0.08360
C2087       C  0.76050451  0.09576011  0.60245633     0.62020
H2088       H  0.82941085  0.10712748  0.62030458     0.12710
H2089       H  0.82558028  0.04698994  0.51000131     0.12730
C2090       C  0.89431887  0.05973488  0.52782170     0.62250
F2091       F  0.76715920  0.11712369  0.62950394    -0.22910
F2092       F  0.74393902  0.06713680  0.61524553    -0.20240
F2093       F  0.73733752  0.11263399  0.58101670    -0.19920
F2094       F  0.91239755  0.03667716  0.54778627    -0.19970
F2095       F  0.91548608  0.08768342  0.52167975    -0.20290
F2096       F  0.88775484  0.04420542  0.49707796    -0.22970
C2097       C  0.44505815  0.08075856  0.64794189    -0.05810
C2098       C  0.41889318  0.09346835  0.67122228     0.00120
C2099       C  0.42571406  0.09330310  0.70644121    -0.08450
C2100       C  0.45939941  0.08147215  0.71679398    -0.05830
C2101       C  0.48628520  0.07051767  0.69331058     0.00110
C2102       C  0.47902789  0.06983008  0.65807840    -0.08360
C2103       C  0.50589813  0.05783798  0.63049767     0.62020
H2104       H  0.43934022  0.08055307  0.62108157     0.12710
H2105       H  0.46501847  0.08055045  0.74365253     0.12730
C2106       C  0.39774852  0.10459183  0.73317463     0.62250
F2107       F  0.49965854  0.07403636  0.59993198    -0.22910
F2108       F  0.50210275  0.02334084  0.62507269    -0.20240
F2109       F  0.54099592  0.06460305  0.63909547    -0.19920
F2110       F  0.36530795  0.08906794  0.72730960    -0.19970
F2111       F  0.39317669  0.13953373  0.73219991    -0.20290
F2112       F  0.40788890  0.09588234  0.76569342    -0.22970
C2113       C  0.62077084  0.08753232  0.82441743    -0.05810
C2114       C  0.59549349  0.08484466  0.85135357     0.00120
C2115       C  0.55942092  0.07669978  0.84462575    -0.08450
C2116       C  0.54937973  0.07240039  0.81103367    -0.05830
C2117       C  0.57474384  0.07420081  0.78433458     0.00110
C2118       C  0.61094920  0.08244189  0.79069327    -0.08360
C2119       C  0.63990934  0.08601265  0.76307901     0.62020
H2120       H  0.64831156  0.09432314  0.82972308     0.12710
H2121       H  0.52218049  0.06476144  0.80547848     0.12730
C2122       C  0.53362974  0.06696930  0.87285810     0.62250
F2123       F  0.65806163  0.11608924  0.76747780    -0.22910
F2124       F  0.62604354  0.08646436  0.73082191    -0.20240
F2125       F  0.66436482  0.05937473  0.76541451    -0.19920
F2126       F  0.52633954  0.09435864  0.89401278    -0.19970
F2127       F  0.55010809  0.04103251  0.89028993    -0.20290
F2128       F  0.50120648  0.05514122  0.86115896    -0.22970
C2129       C  0.54948701  0.95190145  0.69503493    -0.05810
C2130       C  0.57460200  0.97627137  0.70506921     0.00120
C2131       C  0.61188469  0.97059991  0.69816946    -0.08450
C2132       C  0.62232024  0.94021746  0.68256804    -0.05830
C2133       C  0.59721879  0.91684287  0.67091235     0.00110
C2134       C  0.55998885  0.92329803  0.67582225    -0.08360
C2135       C  0.53150269  0.90108682  0.66053131     0.62020
H2136       H  0.52115859  0.95650527  0.70079743     0.12710
H2137       H  0.65078746  0.93504116  0.67826411     0.12730
C2138       C  0.64099731  0.99640030  0.70537698     0.62250
F2139       F  0.49711241  0.91292811  0.66860876    -0.22910
F2140       F  0.53490079  0.86824400  0.67252087    -0.20240
F2141       F  0.53517726  0.90115756  0.62547816    -0.19920
F2142       F  0.64704884  0.99765433  0.73977936    -0.19970
F2143       F  0.63099366  0.02815696  0.69353980    -0.20290
F2144       F  0.67356895  0.98782412  0.68953975    -0.22970
C2145       C  0.44658283  0.53734737  0.20591325    -0.05810
C2146       C  0.47690450  0.55684639  0.19785376     0.00120
C2147       C  0.47491447  0.58496216  0.17577230    -0.08450
C2148       C  0.44143286  0.59368104  0.16334154    -0.05830
C2149       C  0.41125828  0.57394690  0.17082088     0.00110
C2150       C  0.41320052  0.54555976  0.19247348    -0.08360
C2151       C  0.38016603  0.52554232  0.20270272     0.62020
H2152       H  0.44946182  0.51568898  0.22271151     0.12710
H2153       H  0.43847537  0.61608346  0.14754587     0.12730
C2154       C  0.50786596  0.60508398  0.16480358     0.62250
F2155       F  0.38869697  0.49789039  0.22288452    -0.22910
F2156       F  0.36347598  0.51365446  0.17410293    -0.20240
F2157       F  0.35673252  0.54652089  0.22102501    -0.19920
F2158       F  0.53411183  0.58340014  0.15119345    -0.19970
F2159       F  0.52126099  0.62180491  0.19249688    -0.20290
F2160       F  0.49984436  0.62919021  0.14036755    -0.22970
C2161       C  0.57031879  0.46827954  0.15560828    -0.05810
C2162       C  0.57227914  0.47107656  0.19104036     0.00120
C2163       C  0.57903949  0.44174630  0.21095658    -0.08450
C2164       C  0.58624265  0.41100973  0.19405712    -0.05830
C2165       C  0.58455776  0.40849565  0.15864310     0.00110
C2166       C  0.57424101  0.43705475  0.13909009    -0.08360
C2167       C  0.56773330  0.43515845  0.10113271     0.62020
H2168       H  0.56421297  0.49092555  0.14103688     0.12710
H2169       H  0.59403373  0.38864213  0.20835338     0.12730
C2170       C  0.57829088  0.44217215  0.24956863     0.62250
F2171       F  0.55594279  0.46598692  0.08818377    -0.22910
F2172       F  0.54146448  0.41143487  0.09499960    -0.20240
F2173       F  0.59917072  0.42616589  0.08378704    -0.19920
F2174       F  0.54715153  0.45811516  0.26183950    -0.19970
F2175       F  0.60811956  0.45879871  0.26117024    -0.20290
F2176       F  0.57903370  0.40957662  0.26276310    -0.22970
C2177       C  0.46171552  0.66601662  0.04323075    -0.05810
C2178       C  0.45675974  0.70131252  0.03954399     0.00120
C2179       C  0.42223736  0.71611521  0.04601733    -0.08450
C2180       C  0.39601221  0.69626953  0.06212884    -0.05830
C2181       C  0.40180280  0.66160623  0.06801626     0.00110
C2182       C  0.43384229  0.64541359  0.05580208    -0.08360
C2183       C  0.43860114  0.60696921  0.05581003     0.62020
H2184       H  0.48773261  0.65475522  0.03659418     0.12710
H2185       H  0.37029087  0.70765010  0.06955048     0.12730
C2186       C  0.41180341  0.75213414  0.03578839     0.62250
F2187       F  0.47246240  0.59700216  0.04368832    -0.22910
F2188       F  0.41334137  0.59268937  0.03505470    -0.20240
F2189       F  0.43409601  0.59425048  0.08827052    -0.19920
F2190       F  0.43288333  0.76376439  0.00884396    -0.19970
F2191       F  0.41503208  0.77376286  0.06318615    -0.20290
F2192       F  0.37639386  0.75313665  0.02552214    -0.22970
C2193       C  0.53906616  0.80227897  0.08650476    -0.05810
C2194       C  0.53159938  0.80510198  0.05196554     0.00120
C2195       C  0.53937129  0.83566724  0.03427275    -0.08450
C2196       C  0.55984827  0.86012972  0.05039726    -0.05830
C2197       C  0.56961942  0.85621206  0.08425779     0.00110
C2198       C  0.55731084  0.82780951  0.10349198    -0.08360
C2199       C  0.56494929  0.82297885  0.14105039     0.62020
H2200       H  0.53234473  0.77891535  0.09962796     0.12710
H2201       H  0.56788422  0.88277835  0.03654489     0.12730
C2202       C  0.52704977  0.84351141  0.99857118     0.62250
F2203       F  0.55480814  0.79120518  0.15275287    -0.22910
F2204       F  0.54638433  0.84694928  0.16045385    -0.20240
F2205       F  0.60115777  0.82613547  0.14636230    -0.19920
F2206       F  0.50164148  0.82088344  0.98749231    -0.19970
F2207       F  0.55648182  0.84286061  0.97627221    -0.20290
F2208       F  0.51147931  0.87567090  0.99799280    -0.22970
C2209       C  0.59258272  0.72944912  0.95455402    -0.05810
C2210       C  0.55502234  0.72671592  0.95608424     0.00120
C2211       C  0.53657927  0.71713437  0.92678839    -0.08450
C2212       C  0.55668128  0.70287085  0.89981957    -0.05830
C2213       C  0.59454920  0.70248038  0.89942710     0.00110
C2214       C  0.61271939  0.72016980  0.92542741    -0.08360
C2215       C  0.65176301  0.73147748  0.92501915     0.62020
H2216       H  0.60648010  0.73925102  0.97633049     0.12710
H2217       H  0.54256251  0.69204408  0.87864140     0.12730
C2218       C  0.49637046  0.72207186  0.92226832     0.62250
F2219       F  0.65224829  0.76641950  0.92921026    -0.22910
F2220       F  0.67092392  0.72427839  0.89552214    -0.20240
F2221       F  0.66930655  0.71682913  0.95199658    -0.19920
F2222       F  0.47960320  0.74161093  0.94734017    -0.19970
F2223       F  0.48020757  0.69061187  0.92124870    -0.20290
F2224       F  0.49100569  0.73903511  0.89214162    -0.22970
C2225       C  0.69889914  0.47148852  0.06736925    -0.05810
C2226       C  0.70254139  0.47210925  0.03182086     0.00120
C2227       C  0.68853315  0.44489211  0.01255619    -0.08450
C2228       C  0.67743980  0.41580974  0.03000536    -0.05830
C2229       C  0.67938904  0.41337693  0.06526350     0.00110
C2230       C  0.68922318  0.44195984  0.08472950    -0.08360
C2231       C  0.69031801  0.44168170  0.12334107     0.62020
H2232       H  0.70691388  0.49363642  0.08154655     0.12710
H2233       H  0.66804063  0.39400289  0.01609974     0.12730
C2234       C  0.68566065  0.44512757  0.97416912     0.62250
F2235       F  0.69816264  0.47334423  0.13646488    -0.22910
F2236       F  0.71662866  0.41909698  0.13388066    -0.20240
F2237       F  0.65729526  0.43237144  0.13683700    -0.19920
F2238       F  0.71944254  0.44824874  0.95927564    -0.19970
F2239       F  0.66307356  0.47114833  0.96403016    -0.20290
F2240       F  0.67088514  0.41552945  0.96225450    -0.22970
C2241       C  0.80268867  0.58042724  0.04720583    -0.05810
C2242       C  0.80856903  0.54510482  0.04467779     0.00120
C2243       C  0.83744388  0.52943690  0.06161477    -0.08450
C2244       C  0.86128790  0.55049855  0.07839964    -0.05830
C2245       C  0.85690749  0.58595134  0.07843986     0.00110
C2246       C  0.82691149  0.60146697  0.06312193    -0.08360
C2247       C  0.82031139  0.63976405  0.06318860     0.62020
H2248       H  0.77947325  0.59163929  0.03509488     0.12710
H2249       H  0.88418533  0.53948342  0.09115463     0.12730
C2250       C  0.84391506  0.49127338  0.06187994     0.62250
F2251       F  0.78676150  0.64833559  0.05088122    -0.22910
F2252       F  0.84595910  0.65541944  0.04266685    -0.20240
F2253       F  0.82195802  0.65229331  0.09594858    -0.19920
F2254       F  0.84366822  0.47841077  0.02917831    -0.19970
F2255       F  0.81787324  0.47550681  0.08172030    -0.20290
F2256       F  0.87680944  0.48335956  0.07566387    -0.22970
C2257       C  0.72789878  0.59219515  0.95192864    -0.05810
C2258       C  0.73765347  0.55829238  0.94566860     0.00120
C2259       C  0.73169024  0.54293789  0.91411794    -0.08450
C2260       C  0.71291931  0.56190018  0.89012996    -0.05830
C2261       C  0.70167319  0.59557826  0.89660228     0.00110
C2262       C  0.70905558  0.61101658  0.92794939    -0.08360
C2263       C  0.69418017  0.64587057  0.93710786     0.62020
H2264       H  0.73246321  0.60274504  0.97687687     0.12710
H2265       H  0.70557469  0.54975327  0.86697247     0.12730
C2266       C  0.74264692  0.50622978  0.90595930     0.62250
F2267       F  0.70384864  0.65582778  0.96933619    -0.22910
F2268       F  0.65694493  0.64559684  0.93612155    -0.20240
F2269       F  0.70728675  0.66938166  0.91414175    -0.19920
F2270       F  0.71200115  0.48754306  0.90076146    -0.19970
F2271       F  0.76237200  0.49071351  0.93100535    -0.20290
F2272       F  0.76435469  0.50492534  0.87721945    -0.22970
C2273       C  0.57729906  0.60396449  0.32334360    -0.05810
C2274       C  0.58602726  0.57876229  0.34715783     0.00120
C2275       C  0.58960399  0.54445816  0.33676977    -0.08450
C2276       C  0.58178137  0.53620622  0.30339754    -0.05830
C2277       C  0.57462397  0.56139579  0.27927901     0.00110
C2278       C  0.57425938  0.59608844  0.28891628    -0.08360
C2279       C  0.57304218  0.62541128  0.26386309     0.62020
H2280       H  0.57668012  0.63049066  0.33098501     0.12710
H2281       H  0.58179206  0.50979064  0.29578817     0.12730
C2282       C  0.60500421  0.51713287  0.35937700     0.62250
F2283       F  0.59919587  0.64878339  0.27159215    -0.22910
F2284       F  0.53963890  0.64138181  0.26610653    -0.20240
F2285       F  0.57981374  0.61488204  0.23077828    -0.19920
F2286       F  0.58980341  0.51928819  0.39162378    -0.19970
F2287       F  0.64171586  0.52178641  0.36107200    -0.20290
F2288       F  0.59907274  0.48485595  0.34688023    -0.22970
C2289       C  0.68724094  0.66598723  0.28908054    -0.05810
C2290       C  0.68760772  0.70152123  0.28896726     0.00120
C2291       C  0.68397468  0.72020306  0.31933038    -0.08450
C2292       C  0.67816090  0.70219251  0.34943927    -0.05830
C2293       C  0.67818326  0.66658114  0.34960156     0.00110
C2294       C  0.68492593  0.64791234  0.31932099    -0.08360
C2295       C  0.69059871  0.60955529  0.31851014     0.62020
H2296       H  0.69158589  0.65262024  0.26519805     0.12710
H2297       H  0.67330025  0.71569030  0.37317094     0.12730
C2298       C  0.68690435  0.75857284  0.32004011     0.62250
F2299       F  0.69851406  0.59762721  0.28601682    -0.22910
F2300       F  0.65998061  0.59349294  0.33002948    -0.20240
F2301       F  0.71913326  0.60067008  0.33876384    -0.19920
F2302       F  0.65864945  0.77317786  0.30278057    -0.19970
F2303       F  0.71921536  0.76853168  0.30509227    -0.20290
F2304       F  0.68571086  0.77054185  0.35301364    -0.22970
C2305       C  0.81187899  0.72669524  0.19670659    -0.05810
C2306       C  0.78683046  0.70241731  0.20737221     0.00120
C2307       C  0.79372987  0.66725174  0.20316389    -0.08450
C2308       C  0.82635963  0.65765592  0.18790322    -0.05830
C2309       C  0.85074686  0.68192375  0.17562349     0.00110
C2310       C  0.84359337  0.71706232  0.17953307    -0.08360
C2311       C  0.86830659  0.74426135  0.16530687     0.62020
H2312       H  0.80517311  0.75340720  0.20021407     0.12710
H2313       H  0.83247566  0.63086287  0.18416578     0.12730
C2314       C  0.76656991  0.63996366  0.21303559     0.62250
F2315       F  0.85760296  0.77635623  0.17617456    -0.22910
F2316       F  0.86800053  0.74387268  0.13018523    -0.20240
F2317       F  0.90290088  0.73863905  0.17599065    -0.19920
F2318       F  0.73318555  0.64781565  0.20004695    -0.19970
F2319       F  0.76361640  0.63736139  0.24798869    -0.20290
F2320       F  0.77689920  0.60827286  0.20056654    -0.22970
C2321       C  0.69605714  0.80844639  0.21114222    -0.05810
C2322       C  0.68765623  0.77975752  0.19184216     0.00120
C2323       C  0.67711517  0.78279007  0.15785572    -0.08450
C2324       C  0.67429138  0.81544021  0.14434795    -0.05830
C2325       C  0.67967642  0.84408639  0.16468736     0.00110
C2326       C  0.69251768  0.84099534  0.19779567    -0.08360
C2327       C  0.70419680  0.87171820  0.21780604     0.62020
H2328       H  0.70633559  0.80498352  0.23647343     0.12710
H2329       H  0.66515668  0.81896429  0.11861960     0.12730
C2330       C  0.66726589  0.75200077  0.13684791     0.62250
F2331       F  0.71985078  0.86251214  0.24806486    -0.22910
F2332       F  0.67483423  0.89248614  0.22530927    -0.20240
F2333       F  0.72927537  0.88967734  0.19866640    -0.19920
F2334       F  0.64135339  0.73343648  0.15428277    -0.19970
F2335       F  0.69726836  0.73153880  0.13067860    -0.20290
F2336       F  0.65349003  0.76134792  0.10578677    -0.22970
C2337       C  0.32482632  0.52758428  0.93333536    -0.05810
C2338       C  0.31776800  0.53334226  0.96815930     0.00120
C2339       C  0.32391307  0.56558609  0.98240204    -0.08450
C2340       C  0.33787858  0.59090468  0.96136822    -0.05830
C2341       C  0.34298488  0.58578746  0.92652306     0.00110
C2342       C  0.33575613  0.55397335  0.91171195    -0.08360
C2343       C  0.33811552  0.54817278  0.87357829     0.62020
H2344       H  0.31889611  0.50284714  0.92286027     0.12710
H2345       H  0.34373285  0.61571549  0.97173394     0.12730
C2346       C  0.31374788  0.57444098  0.01879783     0.62250
F2347       F  0.33256344  0.51447717  0.86518234    -0.22910
F2348       F  0.37164952  0.55708812  0.86091244    -0.20240
F2349       F  0.31208032  0.56774433  0.85799959    -0.19920
F2350       F  0.33501202  0.55620372  0.04079078    -0.19970
F2351       F  0.27779679  0.56745862  0.02534564    -0.20290
F2352       F  0.31879038  0.60864653  0.02474118    -0.22970
C2353       C  0.16073065  0.45744170  0.93651803    -0.05810
C2354       C  0.16860076  0.42392292  0.92660321     0.00120
C2355       C  0.20038186  0.40705722  0.93708265    -0.08450
C2356       C  0.22393746  0.42534782  0.95674027    -0.05830
C2357       C  0.21538330  0.45845881  0.96749457     0.00110
C2358       C  0.18329989  0.47479361  0.95806098    -0.08360
C2359       C  0.17219801  0.50947616  0.97173895     0.62020
H2360       H  0.13588659  0.46939216  0.92852391     0.12710
H2361       H  0.24893352  0.41365635  0.96477740     0.12730
C2362       C  0.20921924  0.36995087  0.92885660     0.62250
F2363       F  0.13607856  0.51584878  0.96645440    -0.22910
F2364       F  0.19222091  0.53442219  0.95563451    -0.20240
F2365       F  0.17745286  0.51102641  0.00637802    -0.19920
F2366       F  0.20402982  0.36332249  0.89489716    -0.19970
F2367       F  0.18742584  0.34899316  0.94842051    -0.20290
F2368       F  0.24471342  0.36172118  0.93565070    -0.22970
C2369       C  0.32068451  0.44292665  0.11662306    -0.05810
C2370       C  0.32738631  0.40829947  0.11102317     0.00120
C2371       C  0.31658582  0.39241771  0.08085397    -0.08450
C2372       C  0.30174611  0.41295794  0.05567742    -0.05830
C2373       C  0.29686229  0.44808325  0.06064090     0.00110
C2374       C  0.30439436  0.46305501  0.09213866    -0.08360
C2375       C  0.29613268  0.49968480  0.10138726     0.62020
H2376       H  0.32858910  0.45442860  0.14033893     0.12710
H2377       H  0.29487036  0.40200962  0.03145260     0.12730
C2378       C  0.32224029  0.35457703  0.07468218     0.62250
F2379       F  0.27691888  0.50050319  0.13192634    -0.22910
F2380       F  0.27573990  0.51673087  0.07779108    -0.20240
F2381       F  0.32830168  0.51643129  0.10492830    -0.19920
F2382       F  0.30296527  0.33633671  0.09889051    -0.19970
F2383       F  0.35844186  0.34630723  0.07658089    -0.20290
F2384       F  0.31071493  0.34484810  0.04298220    -0.22970
C2385       C  0.57800791  0.43065395  0.75859013    -0.05810
C2386       C  0.57126463  0.46375269  0.77109757     0.00120
C2387       C  0.59412932  0.47755120  0.79531300    -0.08450
C2388       C  0.61644432  0.45541558  0.81251506    -0.05830
C2389       C  0.61769914  0.42063691  0.80467287     0.00110
C2390       C  0.60200072  0.40873768  0.77471251    -0.08360
C2391       C  0.60906761  0.37331888  0.76056819     0.62020
H2392       H  0.56155648  0.42053063  0.73879162     0.12710
H2393       H  0.63196737  0.46531562  0.83323776     0.12730
C2394       C  0.59514791  0.51480092  0.80462545     0.62250
F2395       F  0.59127993  0.36809158  0.73055318    -0.22910
F2396       F  0.59757461  0.34906892  0.78364333    -0.20240
F2397       F  0.64560115  0.36907151  0.75380955    -0.19920
F2398       F  0.58362727  0.51943662  0.83806866    -0.19970
F2399       F  0.57443296  0.53494839  0.78367502    -0.20290
F2400       F  0.63032750  0.52509256  0.80135753    -0.22970
C2401       C  0.44860828  0.56253933  0.85773807    -0.05810
C2402       C  0.45014427  0.59200368  0.83768733     0.00120
C2403       C  0.46266230  0.59077085  0.80370114    -0.08450
C2404       C  0.47136601  0.55915598  0.78992784    -0.05830
C2405       C  0.46704010  0.52933776  0.80902473     0.00110
C2406       C  0.45602925  0.53055680  0.84347621    -0.08360
C2407       C  0.45006823  0.49841326  0.86404429     0.62020
H2408       H  0.43850679  0.56452998  0.88376529     0.12710
H2409       H  0.48139339  0.55729389  0.76385922     0.12730
C2410       C  0.46768774  0.62268581  0.78258976     0.62250
F2411       F  0.43676114  0.50552838  0.89650661    -0.22910
F2412       F  0.48217152  0.48056272  0.86685848    -0.20240
F2413       F  0.42542942  0.47819673  0.84802059    -0.19920
F2414       F  0.48920318  0.64481706  0.79992476    -0.19970
F2415       F  0.43477281  0.63813488  0.77665515    -0.20290
F2416       F  0.48431454  0.61573275  0.75143796    -0.22970
C2417       C  0.43752566  0.46108074  0.65209895    -0.05810
C2418       C  0.43936127  0.42554496  0.65121621     0.00120
C2419       C  0.45297371  0.40687305  0.67879470    -0.08450
C2420       C  0.46563311  0.42488725  0.70629763    -0.05830
C2421       C  0.46354411  0.46036730  0.70711354     0.00110
C2422       C  0.44893414  0.47901234  0.68030730    -0.08360
C2423       C  0.44557269  0.51731224  0.68135894     0.62020
H2424       H  0.42615478  0.47451279  0.63074577     0.12710
H2425       H  0.47706578  0.41151941  0.72766861     0.12730
C2426       C  0.45135011  0.36851787  0.68048496     0.62250
F2427       F  0.42898084  0.52917882  0.65271179    -0.22910
F2428       F  0.47938539  0.53152024  0.68306602    -0.20240
F2429       F  0.42478695  0.52756846  0.70921340    -0.19920
F2430       F  0.47233139  0.35428200  0.65453296    -0.19970
F2431       F  0.41589053  0.35902440  0.67747339    -0.20290
F2432       F  0.46363642  0.35588263  0.71099299    -0.22970
C2433       C  0.60493398  0.28463227  0.92670477    -0.05810
C2434       C  0.59521253  0.31081239  0.90463768     0.00120
C2435       C  0.55872924  0.31893508  0.89894743    -0.08450
C2436       C  0.53241406  0.29956396  0.91552993    -0.05830
C2437       C  0.54210973  0.27429024  0.93868685     0.00110
C2438       C  0.57857630  0.26671420  0.94491665    -0.08360
C2439       C  0.58931132  0.24076615  0.97140344     0.62020
H2440       H  0.63328486  0.27982719  0.93103126     0.12710
H2441       H  0.50407211  0.30529450  0.91220179     0.12730
C2442       C  0.54791851  0.34851814  0.87643189     0.62250
F2443       F  0.62630624  0.23770855  0.97335298    -0.22910
F2444       F  0.57563311  0.20941267  0.96312364    -0.20240
F2445       F  0.57598806  0.25041432  0.00313062    -0.19920
F2446       F  0.56354040  0.34434830  0.84447091    -0.19970
F2447       F  0.55940932  0.37874469  0.89020992    -0.20290
F2448       F  0.51092848  0.35081905  0.87302425    -0.22970
C2449       C  0.45062936  0.26233129  0.06712793    -0.05810
C2450       C  0.46176957  0.28297267  0.03983338     0.00120
C2451       C  0.45748006  0.31880027  0.04199011    -0.08450
C2452       C  0.44594176  0.33252401  0.07309729    -0.05830
C2453       C  0.43297016  0.31174970  0.09951419     0.00110
C2454       C  0.43236222  0.27599644  0.09537642    -0.08360
C2455       C  0.41037870  0.25234275  0.11821444     0.62020
H2456       H  0.45390504  0.23500394  0.06495540     0.12710
H2457       H  0.44453753  0.35994100  0.07601339     0.12730
C2458       C  0.46233958  0.34288906  0.01194855     0.62250
F2459       F  0.41530473  0.21856614  0.10914353    -0.22910
F2460       F  0.37410756  0.26008941  0.11537401    -0.20240
F2461       F  0.41978345  0.25554193  0.15162301    -0.19920
F2462       F  0.45151963  0.32802588  0.98208775    -0.19970
F2463       F  0.49800598  0.35229820  0.00868377    -0.20290
F2464       F  0.44160145  0.37216753  0.01658561    -0.22970
C2465       C  0.40840310  0.19033867  0.95935848    -0.05810
C2466       C  0.44620095  0.18925519  0.95902949     0.00120
C2467       C  0.46480319  0.15801951  0.95378356    -0.08450
C2468       C  0.44516371  0.13017309  0.94302340    -0.05830
C2469       C  0.40763703  0.13211827  0.94060848     0.00110
C2470       C  0.38847450  0.16147316  0.95213036    -0.08360
C2471       C  0.34762192  0.16274436  0.95665243     0.62020
H2472       H  0.39458037  0.21413310  0.96524139     0.12710
H2473       H  0.45918687  0.10689977  0.93543793     0.12730
C2474       C  0.50478641  0.15341701  0.95980709     0.62250
F2475       F  0.33559659  0.19348988  0.97019113    -0.22910
F2476       F  0.33684281  0.13732390  0.97883623    -0.20240
F2477       F  0.33117716  0.15838856  0.92589512    -0.19920
F2478       F  0.51475454  0.17117477  0.98835539    -0.19970
F2479       F  0.52460373  0.16436768  0.93178705    -0.20290
F2480       F  0.51308660  0.11957539  0.96532851    -0.22970
C2481       C  0.31971976  0.20805513  0.81859334    -0.05810
C2482       C  0.29252716  0.20217672  0.79569120     0.00120
C2483       C  0.27855424  0.16949847  0.79107863    -0.08450
C2484       C  0.29156756  0.14309768  0.81136867    -0.05830
C2485       C  0.31936484  0.14871789  0.83411132     0.00110
C2486       C  0.33458469  0.18152276  0.83722256    -0.08360
C2487       C  0.36635797  0.19060889  0.85888390     0.62020
H2488       H  0.33033339  0.23352767  0.82097337     0.12710
H2489       H  0.28118963  0.11766411  0.80869475     0.12730
C2490       C  0.25066937  0.16308525  0.76438947     0.62250
F2491       F  0.39277700  0.20544896  0.83858300    -0.22910
F2492       F  0.38176544  0.16309483  0.87466810    -0.20240
F2493       F  0.35514069  0.21377602  0.88354828    -0.19920
F2494       F  0.26362411  0.17323323  0.73277960    -0.19970
F2495       F  0.21949601  0.18104083  0.77252947    -0.20290
F2496       F  0.24209717  0.12928990  0.76213039    -0.22970
C2497       C  0.34574173  0.27614355  0.69532622    -0.05810
C2498       C  0.30802286  0.27690770  0.69585318     0.00120
C2499       C  0.28979899  0.29010796  0.66777724    -0.08450
C2500       C  0.30915778  0.30972329  0.64442834    -0.05830
C2501       C  0.34670642  0.31273593  0.64599944     0.00110
C2502       C  0.36590025  0.29191012  0.66939546    -0.08360
C2503       C  0.40624926  0.28425747  0.66981431     0.62020
H2504       H  0.35981398  0.26392315  0.71591802     0.12710
H2505       H  0.29466801  0.32261050  0.62445014     0.12730
C2506       C  0.25059169  0.28350313  0.66081390     0.62250
F2507       F  0.41977636  0.29458406  0.70053035    -0.22910
F2508       F  0.42626512  0.29903781  0.64413097    -0.20240
F2509       F  0.41147972  0.24944015  0.66699483    -0.19920
F2510       F  0.23122981  0.31376683  0.66246780    -0.19970
F2511       F  0.23485935  0.26016419  0.68266555    -0.20290
F2512       F  0.24873281  0.27010511  0.62869681    -0.22970
C2513       C  0.21291781  0.33313787  0.78611743    -0.05810
C2514       C  0.20871709  0.29837827  0.77997468     0.00120
C2515       C  0.17586983  0.28234926  0.78870285    -0.08450
C2516       C  0.15118613  0.29983038  0.80956886    -0.05830
C2517       C  0.15649480  0.33386967  0.81782417     0.00110
C2518       C  0.18622981  0.35186372  0.80378587    -0.08360
C2519       C  0.19027938  0.39014110  0.80765292     0.62020
H2520       H  0.23777841  0.34517725  0.77802693     0.12710
H2521       H  0.12715124  0.28704608  0.81891846     0.12730
C2522       C  0.16598696  0.24712199  0.77685796     0.62250
F2523       F  0.22274770  0.40132712  0.79393246    -0.22910
F2524       F  0.18874322  0.39931711  0.84150864    -0.20240
F2525       F  0.16289203  0.40670597  0.79083385    -0.19920
F2526       F  0.16982991  0.22440587  0.80335177    -0.19970
F2527       F  0.18700927  0.23659141  0.74921128    -0.20290
F2528       F  0.13045893  0.24713821  0.76693776    -0.22970
C2529       C  0.45305243  0.77221898  0.55471693    -0.05810
C2530       C  0.46798635  0.79280686  0.52919601     0.00120
C2531       C  0.47351704  0.82775210  0.53541889    -0.08450
C2532       C  0.46533793  0.84041181  0.56802959    -0.05830
C2533       C  0.44888094  0.82010700  0.59331750     0.00110
C2534       C  0.44232686  0.78529144  0.58635166    -0.08360
C2535       C  0.42447265  0.76151809  0.61175122     0.62020
H2536       H  0.44958410  0.74542514  0.54943442     0.12710
H2537       H  0.46946513  0.86721799  0.57287249     0.12730
C2538       C  0.48616097  0.85301922  0.50859239     0.62250
F2539       F  0.42782304  0.72772168  0.60209409    -0.22910
F2540       F  0.38806681  0.76921245  0.61497149    -0.20240
F2541       F  0.44063958  0.76489461  0.64260273    -0.19920
F2542       F  0.48703320  0.83969844  0.47607928    -0.19970
F2543       F  0.52027180  0.86398834  0.51622590    -0.20290
F2544       F  0.46286373  0.88081146  0.50865478    -0.22970
C2545       C  0.33742475  0.94786428  0.59571770    -0.05810
C2546       C  0.34610311  0.91329818  0.59293506     0.00120
C2547       C  0.33645644  0.89433248  0.56410658    -0.08450
C2548       C  0.31954900  0.91155261  0.53775960    -0.05830
C2549       C  0.31191380  0.94643409  0.54004920     0.00110
C2550       C  0.31937649  0.96482812  0.57002772    -0.08360
C2551       C  0.30933449  0.00215613  0.57542733     0.62020
H2552       H  0.34494437  0.96162013  0.61830840     0.12710
H2553       H  0.31319589  0.89820192  0.51463099     0.12730
C2554       C  0.34568137  0.85677155  0.56028064     0.62250
F2555       F  0.30423548  0.00925565  0.60967966    -0.22910
F2556       F  0.27758497  0.01056742  0.55958132    -0.20240
F2557       F  0.33679056  0.02245342  0.56294461    -0.19920
F2558       F  0.32840609  0.83840754  0.58557317    -0.19970
F2559       F  0.38245070  0.85194657  0.56247280    -0.20290
F2560       F  0.33519262  0.84396554  0.52933707    -0.22970
C2561       C  0.29603775  0.07020487  0.46068125    -0.05810
C2562       C  0.31594503  0.03992826  0.45733124     0.00120
C2563       C  0.34912726  0.03885933  0.43897533    -0.08450
C2564       C  0.36132737  0.06908826  0.42465589    -0.05830
C2565       C  0.34033723  0.09894563  0.42637287     0.00110
C2566       C  0.30758209  0.09997004  0.44497970    -0.08360
C2567       C  0.28600227  0.13232331  0.44991171     0.62020
H2568       H  0.27097943  0.07000202  0.47544130     0.12710
H2569       H  0.38721990  0.06951496  0.41125634     0.12730
C2570       C  0.37117870  0.00633412  0.43355770     0.62250
F2571       F  0.25508139  0.12668268  0.46937795    -0.22910
F2572       F  0.27607063  0.14527897  0.41879896    -0.20240
F2573       F  0.30662152  0.15565908  0.46665192    -0.19920
F2574       F  0.34921732  0.98000187  0.42405221    -0.19970
F2575       F  0.38830730  0.99769823  0.46315628    -0.20290
F2576       F  0.39735941  0.01017286  0.40817662    -0.22970
C2577       C  0.20726507  0.96810565  0.42286574    -0.05810
C2578       C  0.21351679  0.96142750  0.45742144     0.00120
C2579       C  0.18758106  0.94301074  0.47647026    -0.08450
C2580       C  0.16210536  0.92488859  0.45893458    -0.05830
C2581       C  0.15722073  0.92990775  0.42411188     0.00110
C2582       C  0.17707358  0.95543380  0.40682919    -0.08360
C2583       C  0.16630366  0.97053501  0.37289902     0.62020
H2584       H  0.22623695  0.98284430  0.40794043     0.12710
H2585       H  0.14426322  0.90821567  0.47324803     0.12730
C2586       C  0.18316329  0.94382056  0.51477473     0.62250
F2587       F  0.16871486  0.94640438  0.34751345    -0.22910
F2588       F  0.13130051  0.98303305  0.37558943    -0.20240
F2589       F  0.18812877  0.99736756  0.36330093    -0.19920
F2590       F  0.20227294  0.96969330  0.52950155    -0.19970
F2591       F  0.19355593  0.91284087  0.52828760    -0.20290
F2592       F  0.14713457  0.94947307  0.52272595    -0.22970
C2593       C  0.59549660  0.78006982  0.39880616    -0.05810
C2594       C  0.60874956  0.80732184  0.41731949     0.00120
C2595       C  0.60597488  0.80652847  0.45339493    -0.08450
C2596       C  0.59043204  0.77806754  0.46892939    -0.05830
C2597       C  0.56887299  0.75639983  0.45013206     0.00110
C2598       C  0.57713550  0.75359850  0.41483627    -0.08360
C2599       C  0.57226665  0.72166766  0.39431408     0.62020
H2600       H  0.59999014  0.77904577  0.37148457     0.12710
H2601       H  0.58921762  0.77621153  0.49636535     0.12730
C2602       C  0.61705855  0.83585909  0.47557217     0.62250
F2603       F  0.60031345  0.71749822  0.37079377    -0.22910
F2604       F  0.54097988  0.72440566  0.37660854    -0.20240
F2605       F  0.57190776  0.69317680  0.41489016    -0.19920
F2606       F  0.59671524  0.86449876  0.46808881    -0.19970
F2607       F  0.65283633  0.84234401  0.46960669    -0.20290
F2608       F  0.61217989  0.82908193  0.50990472    -0.22970
C2609       C  0.56521829  0.95095240  0.28111135    -0.05810
C2610       C  0.53190198  0.93612048  0.28835992     0.00120
C2611       C  0.52879832  0.90779781  0.31006856    -0.08450
C2612       C  0.56029765  0.89494190  0.32433165    -0.05830
C2613       C  0.59346413  0.91057589  0.31783497     0.00110
C2614       C  0.59627384  0.93895031  0.29619041    -0.08360
C2615       C  0.63165632  0.95664317  0.28964484     0.62020
H2616       H  0.56634409  0.97286393  0.26439649     0.12710
H2617       H  0.55922124  0.87328134  0.34135095     0.12730
C2618       C  0.49252727  0.89228440  0.31873604     0.62250
F2619       F  0.62851405  0.98340332  0.26698048    -0.22910
F2620       F  0.65629229  0.93352478  0.27614580    -0.20240
F2621       F  0.64395251  0.96936897  0.31988936    -0.19920
F2622       F  0.47720458  0.88026520  0.28950070    -0.19970
F2623       F  0.46990985  0.91667443  0.33345676    -0.20290
F2624       F  0.49563618  0.86544270  0.34129484    -0.22970
C2625       C  0.46891640  0.93594388  0.17091925    -0.05810
C2626       C  0.44713421  0.95185998  0.19583544     0.00120
C2627       C  0.40917311  0.95053482  0.19452297    -0.08450
C2628       C  0.39445753  0.93525269  0.16631387    -0.05830
C2629       C  0.41608648  0.91802972  0.14181455     0.00110
C2630       C  0.45403257  0.91652585  0.14519027    -0.08360
C2631       C  0.47879967  0.89224459  0.12518384     0.62020
H2632       H  0.49787623  0.93662227  0.17368462     0.12710
H2633       H  0.36541416  0.93515914  0.16433242     0.12730
C2634       C  0.38408723  0.96278421  0.22345557     0.62250
F2635       F  0.51427509  0.89724160  0.13292082    -0.22910
F2636       F  0.47647094  0.89663876  0.09067906    -0.20240
F2637       F  0.47021323  0.85906150  0.13337832    -0.19920
F2638       F  0.38307405  0.99786605  0.22464494    -0.19970
F2639       F  0.39570544  0.95015004  0.25416589    -0.20290
F2640       F  0.34910506  0.95187775  0.21946439    -0.22970
C2641       C  0.42102873  0.03859482  0.29302956    -0.05810
C2642       C  0.45750999  0.03850034  0.28358463     0.00120
C2643       C  0.47956582  0.06632827  0.29051214    -0.08450
C2644       C  0.46452848  0.09314237  0.30948755    -0.05830
C2645       C  0.42830864  0.09271389  0.32011574     0.00110
C2646       C  0.40544633  0.06595647  0.31052192    -0.08360
C2647       C  0.36510438  0.06585146  0.31848339     0.62020
H2648       H  0.40495884  0.01679354  0.28667093     0.12710
H2649       H  0.48066147  0.11491924  0.31568266     0.12730
C2650       C  0.51810684  0.06802131  0.27707511     0.62250
F2651       F  0.34969381  0.03509715  0.31037314    -0.22910
F2652       F  0.34814064  0.09098153  0.29996453    -0.20240
F2653       F  0.35861175  0.07151373  0.35261642    -0.19920
F2654       F  0.51904841  0.06278323  0.24230275    -0.19970
F2655       F  0.53920545  0.04355905  0.29245147    -0.20290
F2656       F  0.53271475  0.09942475  0.28334816    -0.22970
C2657       C  0.42875087  0.66726337  0.40033582    -0.05810
C2658       C  0.41052673  0.64635565  0.42365418     0.00120
C2659       C  0.40951794  0.65474211  0.45868042    -0.08450
C2660       C  0.42881961  0.68323216  0.46889949    -0.05830
C2661       C  0.44673070  0.70409717  0.44508988     0.00110
C2662       C  0.44470523  0.69725359  0.41002446    -0.08360
C2663       C  0.45730573  0.72055329  0.38145293     0.62020
H2664       H  0.42993049  0.66063951  0.37369346     0.12710
H2665       H  0.43066909  0.68916297  0.49567688     0.12730
C2666       C  0.38965869  0.63350184  0.48523716     0.62250
F2667       F  0.42804340  0.72990692  0.36245283    -0.22910
F2668       F  0.48139375  0.70297349  0.36037380    -0.20240
F2669       F  0.47297987  0.75009251  0.39250757    -0.19920
F2670       F  0.40086303  0.59992281  0.48278812    -0.19970
F2671       F  0.35293463  0.63574865  0.48037674    -0.20290
F2672       F  0.39598278  0.64448721  0.51796451    -0.22970
C2673       C  0.13298020  0.79402817  0.30733300    -0.05810
C2674       C  0.14845281  0.81931333  0.32704513     0.00120
C2675       C  0.18551926  0.82586015  0.32496265    -0.08450
C2676       C  0.20654242  0.80619832  0.30268092    -0.05830
C2677       C  0.19100629  0.78138746  0.28234839     0.00110
C2678       C  0.15389919  0.77506162  0.28416911    -0.08360
C2679       C  0.13701787  0.74840111  0.26202798     0.62020
H2680       H  0.10471040  0.78881874  0.31057336     0.12710
H2681       H  0.23538642  0.80944819  0.30153205     0.12730
C2682       C  0.20239920  0.85342690  0.34604450     0.62250
F2683       F  0.09978095  0.74965098  0.26456312    -0.22910
F2684       F  0.14859533  0.71640787  0.27171517    -0.20240
F2685       F  0.14707678  0.75368530  0.22840167    -0.19920
F2686       F  0.19558497  0.84755138  0.38024434    -0.19970
F2687       F  0.18771964  0.88448135  0.33725752    -0.20290
F2688       F  0.23936597  0.85487575  0.34067357    -0.22970
C2689       C  0.30452186  0.69763507  0.30850435    -0.05810
C2690       C  0.27583054  0.68899735  0.28825073     0.00120
C2691       C  0.26286584  0.65558920  0.28711418    -0.08450
C2692       C  0.27991153  0.63093561  0.30699608    -0.05830
C2693       C  0.30942729  0.63941218  0.32666403     0.00110
C2694       C  0.32203864  0.67309158  0.32753403    -0.08360
C2695       C  0.35440732  0.68288224  0.34761134     0.62020
H2696       H  0.31348667  0.72377244  0.30859425     0.12710
H2697       H  0.27097152  0.60500209  0.30685411     0.12730
C2698       C  0.23201379  0.64665284  0.26426543     0.62250
F2699       F  0.36045168  0.71753006  0.34648680    -0.22910
F2700       F  0.38443309  0.66635539  0.33389833    -0.20240
F2701       F  0.34908318  0.67375480  0.38123389    -0.19920
F2702       F  0.24002456  0.65665520  0.23125948    -0.19970
F2703       F  0.20075710  0.66295292  0.27551877    -0.20290
F2704       F  0.22555262  0.61230569  0.26386821    -0.22970
C2705       C  0.31237481  0.76166420  0.17956195    -0.05810
C2706       C  0.29385551  0.78018728  0.20499524     0.00120
C2707       C  0.29747465  0.81594669  0.20673591    -0.08450
C2708       C  0.31200379  0.83242340  0.17847571    -0.05830
C2709       C  0.32793646  0.81393024  0.15156567     0.00110
C2710       C  0.33204105  0.77817001  0.15400636    -0.08360
C2711       C  0.35695575  0.75745671  0.13068624     0.62020
H2712       H  0.31091246  0.73417568  0.17953585     0.12710
H2713       H  0.31193930  0.86002176  0.17787400     0.12730
C2714       C  0.28818883  0.83711947  0.23807785     0.62250
F2715       F  0.35648737  0.72326556  0.13881057    -0.22910
F2716       F  0.39195939  0.76845407  0.13387307    -0.20240
F2717       F  0.34680618  0.76087809  0.09746028    -0.19920
F2718       F  0.28923845  0.81757303  0.26720151    -0.19970
F2719       F  0.25443415  0.85198737  0.23519304    -0.20290
F2720       F  0.31313391  0.86270873  0.24158443    -0.22970
C2721       C  0.93129950  0.90751067  0.69416170    -0.05810
C2722       C  0.93829148  0.92772255  0.66549852     0.00120
C2723       C  0.95112757  0.96103560  0.66910876    -0.08450
C2724       C  0.95657477  0.97368498  0.70130962    -0.05830
C2725       C  0.94996644  0.95362307  0.72975377     0.00110
C2726       C  0.93738006  0.92002866  0.72681784    -0.08360
C2727       C  0.93001175  0.89815847  0.75793880     0.62020
H2728       H  0.92053448  0.88227588  0.69076405     0.12710
H2729       H  0.96719771  0.99901914  0.70458602     0.12730
C2730       C  0.96212803  0.98153385  0.63875695     0.62250
F2731       F  0.91415491  0.86771034  0.74952591    -0.22910
F2732       F  0.90709596  0.91542427  0.78043670    -0.20240
F2733       F  0.96189552  0.89073681  0.77388194    -0.19920
F2734       F  0.93201918  0.99046314  0.62063597    -0.19970
F2735       F  0.98517228  0.96105719  0.61974318    -0.20290
F2736       F  0.98010020  0.01092283  0.64712208    -0.22970
C2737       C  0.10401211  0.95901950  0.83250031    -0.05810
C2738       C  0.10808162  0.92431883  0.82637925     0.00120
C2739       C  0.07984164  0.90569023  0.81256736    -0.08450
C2740       C  0.04615093  0.92149125  0.81171373    -0.05830
C2741       C  0.04185079  0.95694221  0.81611065     0.00110
C2742       C  0.07195667  0.97634337  0.82616425    -0.08360
C2743       C  0.07288060  0.01475825  0.82784679     0.62020
H2744       H  0.12684511  0.97250261  0.84223485     0.12710
H2745       H  0.02321053  0.90643508  0.80491875     0.12730
C2746       C  0.08530017  0.87068565  0.79655148     0.62250
F2747       F  0.10655852  0.02618121  0.83603156    -0.22910
F2748       F  0.04957119  0.02749501  0.85262070    -0.20240
F2749       F  0.06506136  0.02752883  0.79630323    -0.19920
F2750       F  0.09404572  0.84671771  0.82055602    -0.19970
F2751       F  0.11281658  0.87211994  0.77221468    -0.20290
F2752       F  0.05462670  0.85984166  0.78064700    -0.22970
C2753       C  0.90978108  0.05000132  0.82241455    -0.05810
C2754       C  0.94570024  0.04661943  0.81168637     0.00120
C2755       C  0.96772028  0.07566203  0.80901049    -0.08450
C2756       C  0.95592173  0.10540813  0.82501414    -0.05830
C2757       C  0.92063528  0.10843368  0.83745354     0.00110
C2758       C  0.89589269  0.08145284  0.83315470    -0.08360
C2759       C  0.85539910  0.08525976  0.83935046     0.62020
H2760       H  0.89273004  0.02785350  0.82188048     0.12710
H2761       H  0.97365680  0.12710936  0.82600194     0.12730
C2762       C  0.00232103  0.07758555  0.78814826     0.62250
F2763       F  0.83754986  0.05509566  0.83393712    -0.22910
F2764       F  0.84163131  0.10919880  0.81725916    -0.20240
F2765       F  0.84792275  0.09518741  0.87232771    -0.19920
F2766       F  0.00070057  0.10539546  0.76665777    -0.19970
F2767       F  0.00847607  0.04921356  0.76802607    -0.20290
F2768       F  0.03048176  0.08190515  0.80982975    -0.22970
C2769       C  0.95154826  0.71445090  0.92840164    -0.05810
C2770       C  0.97018037  0.70678894  0.95788209     0.00120
C2771       C  0.97686985  0.67321204  0.96798660    -0.08450
C2772       C  0.96096642  0.64733174  0.94943446    -0.05830
C2773       C  0.94093553  0.65537198  0.92067415     0.00110
C2774       C  0.93775103  0.68897412  0.90867800    -0.08360
C2775       C  0.91845090  0.69817441  0.87631695     0.62020
H2776       H  0.94738179  0.74084800  0.92136936     0.12710
H2777       H  0.96351204  0.62104238  0.95739201     0.12730
C2778       C  0.00085927  0.66562592  0.99761380     0.62250
F2779       F  0.92034904  0.73258114  0.86903188    -0.22910
F2780       F  0.88265341  0.69001218  0.87994029    -0.20240
F2781       F  0.93371517  0.68055269  0.84905495    -0.19920
F2782       F  0.98541026  0.67866751  0.02722702    -0.19970
F2783       F  0.03411539  0.68039288  0.99199185    -0.20290
F2784       F  0.00628860  0.63118521  0.00172966    -0.22970
C2785       C  0.96830243  0.80945661  0.06516576    -0.05810
C2786       C  0.94460086  0.79554725  0.04202801     0.00120
C2787       C  0.90721358  0.79456304  0.04942172    -0.08450
C2788       C  0.89487035  0.80803678  0.08047384    -0.05830
C2789       C  0.91809161  0.82544110  0.10187067     0.00110
C2790       C  0.95572084  0.82535479  0.09481657    -0.08360
C2791       C  0.98279969  0.84148726  0.11806034     0.62020
H2792       H  0.99693938  0.80891761  0.05894515     0.12710
H2793       H  0.86621591  0.80756694  0.08657460     0.12730
C2794       C  0.87905424  0.78181772  0.02522530     0.62250
F2795       F  0.01788937  0.83281254  0.10861662    -0.22910
F2796       F  0.97690718  0.83045809  0.15097562    -0.20240
F2797       F  0.97983251  0.87651972  0.11680416    -0.19920
F2798       F  0.86282276  0.75335544  0.03902989    -0.19970
F2799       F  0.89274201  0.77369777  0.99324982    -0.20290
F2800       F  0.85305479  0.80683705  0.02107040    -0.22970
C2801       C  0.05742488  0.82280018  0.97038206    -0.05810
C2802       C  0.03102908  0.81211982  0.94862378     0.00120
C2803       C  0.03526645  0.81545718  0.91311507    -0.08450
C2804       C  0.06815229  0.82741267  0.90038512    -0.05830
C2805       C  0.09539544  0.83715450  0.92222563     0.00110
C2806       C  0.08958769  0.83566166  0.95774890    -0.08360
C2807       C  0.11628951  0.84842497  0.98246581     0.62020
H2808       H  0.05289174  0.81991128  0.99755329     0.12710
H2809       H  0.07264737  0.82923329  0.87337808     0.12730
C2810       C  0.00520113  0.80716840  0.88911801     0.62250
F2811       F  0.10730401  0.83908320  0.01551460    -0.22910
F2812       F  0.11666406  0.88344719  0.97986587    -0.20240
F2813       F  0.14994755  0.83514106  0.97501517    -0.19920
F2814       F  0.97338244  0.82240179  0.90066554    -0.19970
F2815       F  0.00057843  0.77243914  0.88725105    -0.20290
F2816       F  0.01261918  0.81900894  0.85657952    -0.22970
C2817       C  0.84439444  0.05436868  0.96196124    -0.05810
C2818       C  0.81154555  0.05944914  0.97891135     0.00120
C2819       C  0.79766720  0.09235704  0.98479685    -0.08450
C2820       C  0.81401186  0.11940947  0.96756896    -0.05830
C2821       C  0.84538920  0.11418520  0.94751899     0.00110
C2822       C  0.86271102  0.08145579  0.94705929    -0.08360
C2823       C  0.89917975  0.07199546  0.93096078     0.62020
H2824       H  0.85517752  0.02867254  0.95928442     0.12710
H2825       H  0.80227139  0.14454885  0.96950245     0.12730
C2826       C  0.76635957  0.09808545  0.00972841     0.62250
F2827       F  0.92091710  0.05840917  0.95572736    -0.22910
F2828       F  0.91722060  0.09863893  0.91639062    -0.20240
F2829       F  0.89465764  0.04754988  0.90619201    -0.19920
F2830       F  0.77331264  0.08137767  0.03976278    -0.19970
F2831       F  0.73491180  0.08582322  0.99657168    -0.20290
F2832       F  0.76140108  0.13197736  0.01751015    -0.22970
C2833       C  0.71012354  0.98989634  0.91600617    -0.05810
C2834       C  0.70635721  0.99167766  0.95151582     0.00120
C2835       C  0.67238010  0.98681602  0.96766878    -0.08450
C2836       C  0.64475382  0.97404280  0.94826728    -0.05830
C2837       C  0.64983683  0.96834295  0.91335905     0.00110
C2838       C  0.68183634  0.97851695  0.89629214    -0.08360
C2839       C  0.68693864  0.97503138  0.85804498     0.62020
H2840       H  0.73613172  0.99509467  0.90414322     0.12710
H2841       H  0.61962891  0.96668010  0.96072879     0.12730
C2842       C  0.66543170  0.99198115  0.00551584     0.62250
F2843       F  0.72023351  0.98667217  0.84685685    -0.22910
F2844       F  0.66066094  0.99390585  0.84198657    -0.20240
F2845       F  0.68442262  0.94126699  0.84868782    -0.19920
F2846       F  0.68863558  0.01528212  0.01912806    -0.19970
F2847       F  0.66889309  0.96118357  0.02209240    -0.20290
F2848       F  0.63103833  0.00438948  0.01151822    -0.22970
C2849       C  0.78848079  0.92551428  0.04565291    -0.05810
C2850       C  0.78026706  0.96009103  0.04964622     0.00120
C2851       C  0.78186625  0.97561418  0.08198257    -0.08450
C2852       C  0.79751514  0.95720934  0.10819250    -0.05830
C2853       C  0.80870980  0.92340702  0.10349315     0.00110
C2854       C  0.80287014  0.90666282  0.07236470    -0.08360
C2855       C  0.81571901  0.87051012  0.06605664     0.62020
H2856       H  0.78649238  0.91425024  0.02065571     0.12710
H2857       H  0.80210497  0.96963738  0.13218185     0.12730
C2858       C  0.76951240  0.01197001  0.08898014     0.62250
F2859       F  0.80637874  0.85903187  0.03425610    -0.22910
F2860       F  0.80058619  0.84895517  0.09005232    -0.20240
F2861       F  0.85280906  0.86934239  0.06796096    -0.19920
F2862       F  0.74474917  0.02318575  0.06571639    -0.19970
F2863       F  0.79901766  0.03307386  0.08813483    -0.20290
F2864       F  0.75285386  0.01431457  0.12065415    -0.22970
C2865       C  0.79123972  0.71331170  0.83516354    -0.05810
C2866       C  0.79851217  0.71814213  0.80037637     0.00120
C2867       C  0.81715895  0.69261358  0.78154324    -0.08450
C2868       C  0.83250468  0.66556095  0.79911431    -0.05830
C2869       C  0.82653913  0.66127718  0.83414997     0.00110
C2870       C  0.80348316  0.68441604  0.85232324    -0.08360
C2871       C  0.79152895  0.67929728  0.88925437     0.62020
H2872       H  0.77648895  0.73280031  0.84912989     0.12710
H2873       H  0.84866373  0.64698249  0.78491365     0.12730
C2874       C  0.82052918  0.69178094  0.74312201     0.62250
F2875       F  0.76841010  0.70500864  0.90068114    -0.22910
F2876       F  0.82080825  0.67882080  0.91023597    -0.20240
F2877       F  0.77339371  0.64891260  0.89226951    -0.19920
F2878       F  0.85485663  0.70130607  0.73284177    -0.19970
F2879       F  0.79531455  0.71237115  0.72763160    -0.20290
F2880       F  0.81487871  0.65896652  0.73233705    -0.22970
C2881       C  0.68968479  0.82990032  0.77371019    -0.05810
C2882       C  0.71632695  0.81738340  0.79517182     0.00120
C2883       C  0.71912436  0.82995273  0.82868704    -0.08450
C2884       C  0.69256809  0.85234471  0.84063561    -0.05830
C2885       C  0.66438323  0.86289645  0.82008352     0.00110
C2886       C  0.66388570  0.85359836  0.78548396    -0.08360
C2887       C  0.63702248  0.86875221  0.76119343     0.62020
H2888       H  0.68993944  0.82149213  0.74747741     0.12710
H2889       H  0.69281519  0.86094355  0.86680594     0.12730
C2890       C  0.74958278  0.82000406  0.85205879     0.62250
F2891       F  0.64138976  0.85521793  0.72897758    -0.22910
F2892       F  0.64178085  0.90352606  0.75902736    -0.20240
F2893       F  0.60232173  0.86233024  0.77235102    -0.19920
F2894       F  0.78264441  0.82368477  0.83554652    -0.19970
F2895       F  0.74550015  0.78669964  0.86231968    -0.20290
F2896       F  0.74965844  0.84004560  0.88100541    -0.22970
C2897       C  0.83516995  0.79224603  0.69567686    -0.05810
C2898       C  0.82380301  0.81443133  0.72179136     0.00120
C2899       C  0.82650718  0.85009895  0.71727830    -0.08450
C2900       C  0.83686614  0.86220977  0.68528160    -0.05830
C2901       C  0.84733462  0.83998811  0.65891730     0.00110
C2902       C  0.84761229  0.80438931  0.66427044    -0.08360
C2903       C  0.85962279  0.77912759  0.63693278     0.62020
H2904       H  0.83278074  0.76511196  0.69954764     0.12710
H2905       H  0.83840643  0.88947787  0.68133124     0.12730
C2906       C  0.81885565  0.87628608  0.74505540     0.62250
F2907       F  0.85036562  0.74622270  0.64550560    -0.22910
F2908       F  0.89665461  0.77995025  0.63234353    -0.20240
F2909       F  0.84330754  0.78698831  0.60677373    -0.19920
F2910       F  0.81728589  0.86191224  0.77711448    -0.19970
F2911       F  0.78663292  0.89300901  0.73897211    -0.20290
F2912       F  0.84592924  0.90010528  0.74484870    -0.22970
loop_ 
_geom_bond_atom_site_label_1 
_geom_bond_atom_site_label_2 
_geom_bond_distance 
_geom_bond_site_symmetry_2 
_ccdc_geom_bond_type 
O1           Ni7   1.906       .  S
O1           C22   1.272       .  A
O2          Ni25   1.974       .  S
O2           C11   1.277       .  A
O3           Ni7   1.923       .  S
O3          Ni25   1.933       .  S
O3          Ni19   1.933       .  S
O3           H26   0.967       .  S
C4           O21   1.300       .  A
C4           O13   1.277       .  A
C4         C1043   1.529       .  S
O5          Ni24   1.894       .  S
O5           C11   1.267       .  A
O6          Ni24   1.963       .  S
O6            C8   1.278       .  A
Ni7          O10   1.928       .  S
Ni7          O12   1.991       .  S
C8           O18   1.283       .  A
C8          C655   1.559       .  S
O9          Ni25   1.971       .  S
O9           C15   1.292       .  A
O10          C15   1.276       .  A
C11         C946   1.507       .  S
O12          C14   1.286       .  A
O13         Ni24   1.916       .  S
C14          O20   1.285       .  A
C14         C719   1.569       .  S
C15        C1132   1.519       .  S
H16          O17   0.966       .  S
O17         Ni25   1.929       .  S
O17         Ni19   1.931       .  S
O17         Ni24   1.920       .  S
O18         Ni19   2.006       .  S
Ni19         O23   1.974       .  S
Ni19         O21   1.995       .  S
O20         Ni25   2.004       .  S
C22          O23   1.280       .  A
C22         C428   1.521       .  S
O27         Ni33   1.948       .  S
O27          C48   1.278       .  A
O28         Ni51   1.996       .  S
O28          C37   1.292       .  A
O29         Ni33   1.925       .  S
O29         Ni51   1.964       .  S
O29         Ni45   1.914       .  S
O29          H52   0.966       .  S
C30          O47   1.280       .  A
C30          O39   1.271       .  A
C30         C512   1.518       .  S
O31         Ni50   1.929       .  S
O31          C37   1.275       .  A
O32         Ni50   1.976       .  S
O32          C34   1.287       .  A
Ni33         O36   1.908       .  S
Ni33         O38   1.983       .  S
C34          O44   1.286       .  A
C34         C910   1.549       .  S
O35         Ni51   1.972       .  S
O35          C41   1.285       .  A
O36          C41   1.270       .  A
C37        C1131   1.537       .  S
O38          C40   1.289       .  A
O39         Ni50   1.908       .  S
C40          O46   1.283       .  A
C40         C669   1.551       .  S
C41         C775   1.520       .  S
H42          O43   0.967       .  S
O43         Ni51   1.912       .  S
O43         Ni45   1.954       .  S
O43         Ni50   1.924       .  S
O44         Ni45   2.000       .  S
Ni45         O49   1.988       .  S
Ni45         O47   1.969       .  S
O46         Ni51   1.994       .  S
C48          O49   1.290       .  A
C48        C1332   1.540       .  S
C53        C2866   1.469       .  S
C53          C54   1.404       .  A
C53          C58   1.398       .  A
C54          C55   1.400       .  A
C54          H59   1.083       .  S
C55        C2898   1.465       .  S
C55          C56   1.389       .  A
C56          C57   1.385       .  A
C56          H60   1.082       .  S
C57        C2882   1.449       .  S
C57          C58   1.390       .  A
C58          H61   1.084       .  S
C62        C2834   1.461       .  S
C62          C63   1.400       .  A
C62          C67   1.389   1_565  A
C63          C64   1.394   1_556  A
C63          H68   1.082   1_556  S
C64        C2850   1.461       .  S
C64          C65   1.397   1_565  A
C65          C66   1.389   1_554  A
C65          H69   1.084       .  S
C66        C2818   1.447       .  S
C66          C67   1.391       .  A
C67          H70   1.085       .  S
C71        C2770   1.434       .  S
C71          C72   1.382   1_655  A
C71          C76   1.391   1_556  A
C72          C73   1.382       .  A
C72          H77   1.085       .  S
C73        C2802   1.438       .  S
C73          C74   1.391   1_455  A
C74          C75   1.396   1_556  A
C74          H78   1.085       .  S
C75        C2786   1.449       .  S
C75          C76   1.392       .  A
C76          H79   1.084       .  S
C80        C2725   1.442       .  S
C80          C81   1.386       .  A
C80          C85   1.383       .  A
C81          C82   1.390   1_565  A
C81          H86   1.085   1_565  S
C82        C2754   1.454       .  S
C82          C83   1.400   1_545  A
C83          C84   1.401   1_655  A
C83          H87   1.072   1_565  S
C84        C2741   1.481       .  S
C84          C85   1.400   1_455  A
C85          H88   1.085   1_655  S
O89         Ni97   1.901       .  S
O89          C99   1.278       .  A
O90         Ni97   1.920       .  S
O90         C100   1.286       .  A
O91         Ni97   1.918       .  S
O91         C101   1.284       .  A
O92         Ni97   1.883       .  S
O92         C102   1.272       .  A
O93         Ni98   1.876       .  S
O93         C102   1.279       .  A
O94         Ni98   1.951       .  S
O94         C101   1.288       .  A
O95         Ni98   1.946       .  S
O95         C100   1.288       .  A
O96         Ni98   1.889       .  S
O96          C99   1.276       .  A
Ni97        Ni98   2.392       .  S
C99        C2805   1.456       .  S
C100        C324   1.517       .  S
C101        C261   1.513       .  S
C102       C2738   1.445       .  S
O103       Ni111   1.892       .  S
O103        C113   1.275       .  A
O104       Ni111   1.936       .  S
O104        C114   1.286       .  A
O105       Ni111   1.942       .  S
O105        C115   1.288       .  A
O106       Ni111   1.903       .  S
O106        C116   1.278       .  A
O107       Ni112   1.911       .  S
O107        C116   1.278       .  A
O108       Ni112   1.953       .  S
O108        C115   1.290       .  A
O109       Ni112   1.960       .  S
O109        C114   1.292       .  A
O110       Ni112   1.902       .  S
O110        C113   1.278       .  A
Ni111      Ni112   2.387       .  S
C113       C2789   1.459       .  S
C114        C540   1.525       .  S
C115        C369   1.523       .  S
C116       C2853   1.457       .  S
O117       Ni125   1.910       .  S
O117        C127   1.282       .  A
O118       Ni125   1.972       .  S
O118        C128   1.294       .  A
O119       Ni125   1.949       .  S
O119        C129   1.291       .  A
O120       Ni125   1.882       .  S
O120        C130   1.273       .  A
O121       Ni126   1.920       .  S
O121        C130   1.282       .  A
O122       Ni126   1.982       .  S
O122        C129   1.296       .  A
O123       Ni126   1.975       .  S
O123        C128   1.293       .  A
O124       Ni126   1.881       .  S
O124        C127   1.272       .  A
Ni125      Ni126   2.383       .  S
C127       C2901   1.456       .  S
C128        C858   1.561       .  S
C129        C343   1.556       .  S
C130       C2722   1.453       .  S
O131       Ni139   1.899       .  S
O131        C141   1.281       .  A
O132       Ni139   1.958       .  S
O132        C142   1.295       .  A
O133       Ni139   1.950       .  S
O133        C143   1.288       .  A
O134       Ni139   1.886       .  S
O134        C144   1.273       .  A
O135       Ni140   1.891       .  S
O135        C144   1.277       .  A
O136       Ni140   1.957       .  S
O136        C143   1.295       .  A
O137       Ni140   1.958       .  S
O137        C142   1.290       .  A
O138       Ni140   1.894       .  S
O138        C141   1.274       .  A
Ni139      Ni140   2.388       .  S
C141       C2869   1.469       .  S
C142        C280   1.548       .  S
C143        C822   1.544       .  S
C144       C2773   1.430       .  S
O145       Ni153   1.878       .  S
O145        C155   1.277       .  A
O146       Ni153   1.937       .  S
O146        C156   1.283       .  A
O147       Ni153   1.948       .  S
O147        C157   1.293       .  A
O148       Ni153   1.892       .  S
O148        C158   1.278       .  A
O149       Ni154   1.907       .  S
O149        C158   1.278       .  A
O150       Ni154   1.963       .  S
O150        C157   1.290       .  A
O151       Ni154   1.948       .  S
O151        C156   1.295       .  A
O152       Ni154   1.897       .  S
O152        C155   1.276       .  A
Ni153      Ni154   2.390       .  S
C155       C2885   1.448       .  S
C156        C388   1.529       .  S
C157        C235   1.539       .  S
C158       C2837   1.450       .  S
O159       Ni167   1.858       .  S
O159        C169   1.264       .  A
O160       Ni167   1.928       .  S
O160        C170   1.284       .  A
O161       Ni167   1.978       .  S
O161        C171   1.298       .  A
O162       Ni167   1.935       .  S
O162        C172   1.287       .  A
O163       Ni168   1.879       .  S
O163        C172   1.266       .  A
O164       Ni168   1.932       .  S
O164        C171   1.283       .  A
O165       Ni168   1.963       .  S
O165        C170   1.293       .  A
O166       Ni168   1.926       .  S
O166        C169   1.288       .  A
Ni167      Ni168   2.386       .  S
C169       C2757   1.449       .  S
C170        C566   1.528       .  S
C171       C1238   1.538       .  S
C172       C2821   1.462       .  S
O173       Ni179   1.926       .  S
O173        C194   1.275       .  A
O174       Ni197   1.986       .  S
O174        C183   1.293       .  A
O175       Ni179   1.916       .  S
O175       Ni197   1.944       .  S
O175       Ni191   1.925       .  S
O175        H198   0.966       .  S
C176        O193   1.284       .  A
C176        O185   1.263       .  A
C176       C1012   1.533       .  S
O177       Ni196   1.909       .  S
O177        C183   1.267       .  A
O178       Ni196   1.954       .  S
O178        C180   1.282       .  A
Ni179       O182   1.924       .  S
Ni179       O184   1.975       .  S
C180        O190   1.282       .  A
C180        C427   1.519       .  S
O181       Ni197   2.003       .  S
O181        C187   1.295       .  A
O182        C187   1.275       .  A
C183        C761   1.516       .  S
O184        C186   1.283       .  A
O185       Ni196   1.899       .  S
C186        O192   1.276       .  A
C186       C1277   1.540       .  S
C187        C668   1.546       .  S
H188        O189   0.967       .  S
O189       Ni197   1.937       .  S
O189       Ni191   1.955       .  S
O189       Ni196   1.917       .  S
O190       Ni191   1.985       .  S
Ni191       O195   1.985       .  S
Ni191       O193   1.999       .  S
O192       Ni197   1.979       .  S
C194        O195   1.286       .  A
C194       C1173   1.531       .  S
O199       Ni205   1.915       .  S
O199        C220   1.268       .  A
O200       Ni223   1.976       .  S
O200        C209   1.290       .  A
O201       Ni205   1.915       .  S
O201       Ni223   1.953       .  S
O201       Ni217   1.923       .  S
O201        H224   0.967       .  S
C202        O219   1.287       .  A
C202        O211   1.266       .  A
C202        C654   1.546       .  S
O203       Ni222   1.916       .  S
O203        C209   1.269       .  A
O204       Ni222   1.964       .  S
O204        C206   1.282       .  A
Ni205       O208   1.890       .  S
Ni205       O210   1.963       .  S
C206        O216   1.292       .  A
C206        C923   1.548       .  S
O207       Ni223   1.980       .  S
O207        C213   1.278       .  A
O208        C213   1.260       .  A
C209        C510   1.508       .  S
O210        C212   1.284       .  A
O211       Ni222   1.906       .  S
C212        O218   1.282       .  A
C212       C1172   1.521       .  S
C213       C1309   1.519       .  S
H214        O215   0.966       .  S
O215       Ni223   1.914       .  S
O215       Ni217   1.954       .  S
O215       Ni222   1.910       .  S
O216       Ni217   2.014       .  S
Ni217       O221   1.998       .  S
Ni217       O219   2.002       .  S
O218       Ni223   1.986       .  S
C220        O221   1.294       .  A
C220       C1068   1.530       .  S
O225       Ni231   1.917       .  S
O225        C246   1.270       .  A
O226       Ni249   1.990       .  S
O226        C235   1.294       .  A
O227       Ni231   1.925       .  S
O227       Ni249   1.948       .  S
O227       Ni243   1.928       .  S
O227        H250   0.966       .  S
C228        O245   1.286       .  A
C228        O237   1.274       .  A
C228        C627   1.536       .  S
O229       Ni248   1.938       .  S
O229        C235   1.276       .  A
O230       Ni248   1.979       .  S
O230        C232   1.286       .  A
Ni231       O234   1.911       .  S
Ni231       O236   1.962       .  S
C232        O242   1.287       .  A
C232        C789   1.557       .  S
O233       Ni249   2.008       .  S
O233        C239   1.294       .  A
O234        C239   1.270       .  A
O236        C238   1.280       .  A
O237       Ni248   1.935       .  S
C238        O244   1.288       .  A
C238        C496   1.552       .  S
C239        C961   1.544       .  S
H240        O241   0.966       .  S
O241       Ni249   1.932       .  S
O241       Ni243   1.943       .  S
O241       Ni248   1.932       .  S
O242       Ni243   2.006       .  S
Ni243       O247   1.971       .  S
Ni243       O245   1.984       .  S
O244       Ni249   2.015       .  S
C246        O247   1.285       .  A
C246       C1044   1.508       .  S
O251       Ni257   1.907       .  S
O251        C272   1.270       .  A
O252       Ni275   1.976   1_556  S
O252        C261   1.279       .  A
O253       Ni257   1.927       .  S
O253       Ni275   1.938       .  S
O253       Ni269   1.943       .  S
O253        H276   0.966       .  S
C254        O271   1.297       .  A
C254        O263   1.276       .  A
C254        C626   1.536       .  S
O255       Ni274   1.890       .  S
O255        C261   1.264       .  A
O256       Ni274   1.959       .  S
O256        C258   1.273       .  A
Ni257       O260   1.924       .  S
Ni257       O262   1.965       .  S
C258        O268   1.280       .  A
C258       C1109   1.536       .  S
O259       Ni275   1.997       .  S
O259        C265   1.301       .  A
O260        C265   1.275       .  A
O262        C264   1.278       .  A
O263       Ni274   1.936       .  S
C264        O270   1.264       .  A
C264        C465   1.519       .  S
C265       C1360   1.527       .  S
H266        O267   0.966       .  S
O267       Ni275   1.945   1_556  S
O267       Ni269   1.931   1_556  S
O267       Ni274   1.921       .  S
O268       Ni269   1.990   1_556  S
Ni269       O273   1.979       .  S
Ni269       O271   1.991   1_554  S
O270       Ni275   1.945       .  S
C272        O273   1.279       .  A
C272        C760   1.521       .  S
O277       Ni283   1.887   1_655  S
O277        C298   1.266       .  A
O278       Ni301   1.970   1_556  S
O278        C287   1.273       .  A
O279       Ni283   1.919       .  S
O279       Ni301   1.923       .  S
O279       Ni295   1.949   1_455  S
O279        H302   0.966       .  S
C280        O297   1.301       .  A
C280        O289   1.280       .  A
O281       Ni300   1.889       .  S
O281        C287   1.266       .  A
O282       Ni300   1.966       .  S
O282        C284   1.276       .  A
Ni283       O286   1.935       .  S
Ni283       O288   1.962   1_455  S
C284        O294   1.274       .  A
C284       C1108   1.545       .  S
O285       Ni301   1.999       .  S
O285        C291   1.301       .  A
O286        C291   1.279       .  A
C287        C697   1.509       .  S
O288        C290   1.278       .  A
O289       Ni300   1.948   1_655  S
C290        O296   1.271   1_655  A
C290       C1200   1.530       .  S
C291       C1278   1.539       .  S
H292        O293   0.966   1_655  S
O293       Ni301   1.958   1_556  S
O293       Ni295   1.925   1_456  S
O293       Ni300   1.918       .  S
O294       Ni295   1.975   1_456  S
Ni295       O299   1.956       .  S
Ni295       O297   2.004   1_554  S
O296       Ni301   1.962       .  S
C298        O299   1.272       .  A
C298        C802   1.499       .  S
O303       Ni309   1.922       .  S
O303        C324   1.272       .  A
O304       Ni327   2.020       .  S
O304        C313   1.301       .  A
O305       Ni309   1.922       .  S
O305       Ni327   1.958   1_565  S
O305       Ni321   1.938       .  S
O305        H328   0.966       .  S
C306        O323   1.288       .  A
C306        O315   1.266       .  A
C306       C1346   1.531       .  S
O307       Ni326   1.921       .  S
O307        C313   1.273       .  A
O308       Ni326   1.958       .  S
O308        C310   1.282       .  A
Ni309       O312   1.907       .  S
Ni309       O314   1.961       .  S
C310        O320   1.276       .  A
C310        C682   1.515       .  S
O311       Ni327   2.020   1_565  S
O311        C317   1.294       .  A
O312        C317   1.269       .  A
C313        C924   1.547       .  S
O314        C316   1.286       .  A
O315       Ni326   1.916       .  S
C316        O322   1.291       .  A
C316       C1096   1.539       .  S
C317        C497   1.557       .  S
H318        O319   0.967       .  S
O319       Ni327   1.933       .  S
O319       Ni321   1.947   1_545  S
O319       Ni326   1.920       .  S
O320       Ni321   1.968   1_545  S
Ni321       O325   1.977       .  S
Ni321       O323   1.998   1_565  S
O322       Ni327   2.006   1_565  S
C324        O325   1.288       .  A
O329       Ni335   1.887       .  S
O329        C350   1.265       .  A
O330       Ni353   1.957       .  S
O330        C339   1.269       .  A
O331       Ni335   1.921       .  S
O331       Ni353   1.927       .  S
O331       Ni347   1.973       .  S
O331        H354   0.966       .  S
C332        O349   1.314       .  A
C332        O341   1.278       .  A
C332        C720   1.565       .  S
O333       Ni352   1.877       .  S
O333        C339   1.264       .  A
O334       Ni352   1.968       .  S
O334        C336   1.280       .  A
Ni335       O338   1.942       .  S
Ni335       O340   1.966       .  S
C336        O346   1.282       .  A
C336       C1215   1.548       .  S
O337       Ni353   2.024       .  S
O337        C343   1.305       .  A
O338        C343   1.277       .  A
C339       C1081   1.502       .  S
O340        C342   1.276       .  A
O341       Ni352   1.936       .  S
C342        O348   1.271       .  A
C342        C960   1.542       .  S
H344        O345   0.966       .  S
O345       Ni353   1.969       .  S
O345       Ni347   1.917       .  S
O345       Ni352   1.917       .  S
O346       Ni347   1.992       .  S
Ni347       O351   1.986       .  S
Ni347       O349   2.042       .  S
O348       Ni353   1.970       .  S
C350        O351   1.285       .  A
C350        C450   1.517       .  S
O355       Ni361   1.899       .  S
O355        C376   1.270       .  A
O356       Ni379   1.957       .  S
O356        C365   1.271       .  A
O357       Ni361   1.911   1_655  S
O357       Ni379   1.922       .  S
O357       Ni373   1.948   1_655  S
O357        H380   0.966       .  S
C358        O375   1.298       .  A
C358        O367   1.271       .  A
C358       C1011   1.535       .  S
O359       Ni378   1.886       .  S
O359        C365   1.267       .  A
O360       Ni378   1.978       .  S
O360        C362   1.282       .  A
Ni361       O364   1.941   1_455  S
Ni361       O366   1.964       .  S
C362        O372   1.277       .  A
C362       C1214   1.547       .  S
O363       Ni379   1.979       .  S
O363        C369   1.296       .  A
O364        C369   1.278       .  A
C365        C803   1.500       .  S
O366        C368   1.277       .  A
O367       Ni378   1.922   1_455  S
C368        O374   1.271       .  A
C368       C1361   1.533       .  S
H370        O371   0.966       .  S
O371       Ni379   1.942   1_455  S
O371       Ni373   1.931       .  S
O371       Ni378   1.913   1_455  S
O372       Ni373   1.978   1_655  S
Ni373       O377   1.977       .  S
Ni373       O375   1.998       .  S
O374       Ni379   1.968   1_455  S
C376        O377   1.277       .  A
C376        C525   1.514       .  S
O381       Ni387   1.946       .  S
O381        C402   1.274       .  A
O382       Ni405   1.972   1_546  S
O382        C391   1.291       .  A
O383       Ni387   1.892       .  S
O383       Ni405   1.929       .  S
O383       Ni399   1.917       .  S
O383        H406   0.966       .  S
C384        O401   1.284       .  A
C384        O393   1.281       .  A
C384        C988   1.515       .  S
O385       Ni404   1.940       .  S
O385        C391   1.272       .  A
O386       Ni404   1.914   1_565  S
O386        C388   1.266       .  A
Ni387       O390   1.957       .  S
Ni387       O392   1.915   1_565  S
C388        O398   1.296       .  A
O389       Ni405   1.960       .  S
O389        C395   1.277       .  A
O390        C395   1.280       .  A
C391        C684   1.517       .  S
O392        C394   1.270       .  A
O393       Ni404   1.955       .  S
C394        O400   1.301       .  A
C394       C1334   1.542       .  S
C395        C464   1.520       .  S
H396        O397   0.966       .  S
O397       Ni405   1.901   1_546  S
O397       Ni399   1.914   1_546  S
O397       Ni404   1.868       .  S
O398       Ni399   2.011   1_556  S
Ni399       O403   1.965       .  S
Ni399       O401   1.967   1_564  S
O400       Ni405   2.019   1_545  S
C402        O403   1.289       .  A
C402        C817   1.513       .  S
C407       C2690   1.443       .  S
C407        C408   1.391       .  A
C407        C412   1.385       .  A
C408        C409   1.394       .  A
C408        H413   1.084       .  S
C409       C2706   1.460       .  S
C409        C410   1.395       .  A
C410        C411   1.390       .  A
C410        H414   1.082       .  S
C411       C2677   1.441       .  S
C411        C412   1.386       .  A
C412        H415   1.085       .  S
O416       Ni424   1.904       .  S
O416        C426   1.277       .  A
O417       Ni424   1.952       .  S
O417        C427   1.288       .  A
O418       Ni424   1.949       .  S
O418        C428   1.287       .  A
O419       Ni424   1.912       .  S
O419        C429   1.278       .  A
O420       Ni425   1.895       .  S
O420        C429   1.276       .  A
O421       Ni425   1.930       .  S
O421        C428   1.288       .  A
O422       Ni425   1.938       .  S
O422        C427   1.285       .  A
O423       Ni425   1.891       .  S
O423        C426   1.279       .  A
Ni424      Ni425   2.389       .  S
C426       C2658   1.463       .  S
C429       C2693   1.450       .  S
C430       C2610   1.444       .  S
C430        C431   1.389       .  A
C430        C435   1.388       .  A
C431        C432   1.388   1_565  A
C431        H436   1.085       .  S
C432       C2642   1.442       .  S
C432        C433   1.389   1_545  A
C433        C434   1.390       .  A
C433        H437   1.083   1_565  S
C434       C2626   1.453       .  S
C434        C435   1.398       .  A
C435        H438   1.084       .  S
O439       Ni447   1.898       .  S
O439        C449   1.276       .  A
O440       Ni447   1.951       .  S
O440        C450   1.287       .  A
O441       Ni447   1.902       .  S
O441        C451   1.280       .  A
O442       Ni447   1.956       .  S
O442        C452   1.289       .  A
O443       Ni448   1.923       .  S
O443        C452   1.285       .  A
O444       Ni448   1.895       .  S
O444        C451   1.274       .  A
O445       Ni448   1.928       .  S
O445        C450   1.287       .  A
O446       Ni448   1.895       .  S
O446        C449   1.276       .  A
Ni447      Ni448   2.388       .  S
C449       C2613   1.442       .  S
C451       C2594   1.471       .  S
C452        C537   1.511       .  S
O453       Ni461   1.899       .  S
O453        C463   1.281       .  A
O454       Ni461   1.943       .  S
O454        C464   1.285       .  A
O455       Ni461   1.939       .  S
O455        C465   1.287       .  A
O456       Ni461   1.885       .  S
O456        C466   1.279       .  A
O457       Ni462   1.897       .  S
O457        C466   1.276       .  A
O458       Ni462   1.947       .  S
O458        C465   1.289       .  A
O459       Ni462   1.935       .  S
O459        C464   1.289       .  A
O460       Ni462   1.880       .  S
O460        C463   1.272       .  A
Ni461      Ni462   2.389       .  S
C463       C2709   1.453       .  S
C466       C2629   1.463       .  S
C467       C2578   1.477       .  S
C467        C468   1.403       .  A
C467        C472   1.395   1_565  A
C468        C469   1.397       .  A
C468        H473   1.080       .  S
C469       C2549   1.458       .  S
C469        C470   1.389       .  A
C470        C471   1.384   1_565  A
C470        H474   1.080       .  S
C471       C2562   1.449       .  S
C471        C472   1.392       .  A
C472        H475   1.083       .  S
C476       C2530   1.467       .  S
C476        C477   1.390       .  A
C476        C481   1.393       .  A
C477        C478   1.389       .  A
C477        H482   1.085       .  S
C478       C2661   1.459       .  S
C478        C479   1.398       .  A
C479        C480   1.401       .  A
C479        H483   1.069       .  S
C480       C2597   1.503       .  S
C480        C481   1.417       .  A
C481        H484   1.080       .  S
O485       Ni493   1.895       .  S
O485        C495   1.275       .  A
O486       Ni493   1.958       .  S
O486        C496   1.290       .  A
O487       Ni493   1.954       .  S
O487        C497   1.295       .  A
O488       Ni493   1.896       .  S
O488        C498   1.276       .  A
O489       Ni494   1.915       .  S
O489        C498   1.282       .  A
O490       Ni494   1.976       .  S
O490        C497   1.293       .  A
O491       Ni494   1.977       .  S
O491        C496   1.293       .  A
O492       Ni494   1.900       .  S
O492        C495   1.279       .  A
Ni493      Ni494   2.382       .  S
C495       C2546   1.448       .  S
C498       C2533   1.478       .  S
O499       Ni507   1.911       .  S
O499        C509   1.283       .  A
O500       Ni507   1.933       .  S
O500        C510   1.290       .  A
O501       Ni507   1.871       .  S
O501        C511   1.270       .  A
O502       Ni507   1.909       .  S
O502        C512   1.279       .  A
O503       Ni508   1.967       .  S
O503        C512   1.294       .  A
O504       Ni508   1.919       .  S
O504        C511   1.283       .  A
O505       Ni508   1.930       .  S
O505        C510   1.282       .  A
O506       Ni508   1.869       .  S
O506        C509   1.269       .  A
Ni507      Ni508   2.393       .  S
C509       C2645   1.443       .  S
C511       C2565   1.445       .  S
O513       Ni521   1.893       .  S
O513        C523   1.275       .  A
O514       Ni521   1.946       .  S
O514        C524   1.288       .  A
O515       Ni521   1.956       .  S
O515        C525   1.286       .  A
O516       Ni521   1.894       .  S
O516        C526   1.281       .  A
O517       Ni522   1.892       .  S
O517        C526   1.274       .  A
O518       Ni522   1.913       .  S
O518        C525   1.279       .  A
O519       Ni522   1.907       .  S
O519        C524   1.280       .  A
O520       Ni522   1.889       .  S
O520        C523   1.274       .  A
Ni521      Ni522   2.390       .  S
C523       C2674   1.433       .  S
C524        C855   1.504       .  S
C526       C2581   1.463       .  S
O527       Ni533   1.889       .  S
O527        C548   1.260       .  A
O528       Ni551   1.964       .  S
O528        C537   1.282       .  A
O529       Ni533   1.927       .  S
O529       Ni551   1.931   1_545  S
O529       Ni545   1.932       .  S
O529        H552   0.966       .  S
C530        O547   1.294       .  A
C530        O539   1.275       .  A
C530       C1229   1.539       .  S
O531       Ni550   1.922   1_565  S
O531        C537   1.273       .  A
O532       Ni550   1.977       .  S
O532        C534   1.284       .  A
Ni533       O536   1.915   1_545  S
Ni533       O538   1.948   1_545  S
C534        O544   1.280       .  A
C534        C909   1.553       .  S
O535       Ni551   1.968       .  S
O535        C541   1.288       .  A
O536        C541   1.266       .  A
O538        C540   1.275       .  A
O539       Ni550   1.926       .  S
C540        O546   1.280       .  A
C541        C816   1.510       .  S
H542        O543   0.966   1_565  S
O543       Ni551   1.924   1_545  S
O543       Ni545   1.942       .  S
O543       Ni550   1.926       .  S
O544       Ni545   1.993       .  S
Ni545       O549   1.977       .  S
Ni545       O547   1.992       .  S
O546       Ni551   1.986       .  S
C548        O549   1.283       .  A
C548       C1373   1.515       .  S
O553       Ni559   1.919   1_556  S
O553        C574   1.268       .  A
O554       Ni577   1.975       .  S
O554        C563   1.286       .  A
O555       Ni559   1.912       .  S
O555       Ni577   1.957       .  S
O555       Ni571   1.887   1_554  S
O555        H578   0.968       .  S
C556        O573   1.279       .  A
C556        O565   1.268       .  A
C556        C640   1.504       .  S
O557       Ni576   1.942       .  S
O557        C563   1.276       .  A
O558       Ni576   1.968       .  S
O558        C560   1.289       .  A
Ni559       O562   1.884       .  S
Ni559       O564   1.959   1_554  S
C560        O570   1.287       .  A
C560        C774   1.530       .  S
O561       Ni577   1.963       .  S
O561        C567   1.276       .  A
O562        C567   1.265       .  A
C563       C1201   1.524       .  S
O564        C566   1.281       .  A
O565       Ni576   1.907   1_556  S
C566        O572   1.281       .  A
C567       C1376   1.508       .  S
H568        O569   0.963       .  S
O569       Ni577   1.920   1_556  S
O569       Ni571   1.967       .  S
O569       Ni576   1.918   1_556  S
O570       Ni571   1.990   1_554  S
Ni571       O575   2.000       .  S
Ni571       O573   1.959       .  S
O572       Ni577   1.994   1_556  S
C574        O575   1.294       .  A
C574        C989   1.531       .  S
C579       C2498   1.465       .  S
C579        C580   1.402       .  A
C579        C584   1.394       .  A
C580        C581   1.393       .  A
C580        H585   1.083       .  S
C581       C2514   1.460       .  S
C581        C582   1.393       .  A
C582        C583   1.388       .  A
C582        H586   1.084       .  S
C583       C2482   1.446       .  S
C583        C584   1.391       .  A
C584        H587   1.084       .  S
C588       C2437   1.449       .  S
C588        C589   1.393       .  A
C588        C593   1.392       .  A
C589        C590   1.396       .  A
C589        H594   1.082       .  S
C590       C2466   1.463       .  S
C590        C591   1.391       .  A
C591        C592   1.395   1_556  A
C591        H595   1.084   1_556  S
C592       C2450   1.464       .  S
C592        C593   1.390   1_554  A
C593        H596   1.081       .  S
C597       C2405   1.447       .  S
C597        C598   1.392       .  A
C597        C602   1.388       .  A
C598        C599   1.391       .  A
C598        H603   1.083       .  S
C599       C2421   1.438       .  S
C599        C600   1.387       .  A
C600        C601   1.387       .  A
C600        H604   1.085       .  S
C601       C2386   1.461       .  S
C601        C602   1.400       .  A
C602        H605   1.079       .  S
C606       C2373   1.455       .  S
C606        C607   1.388       .  A
C606        C611   1.403       .  A
C607        C608   1.387   1_554  A
C607        H612   1.085       .  S
C608       C2357   1.443       .  S
C608        C609   1.384       .  A
C609        C610   1.392       .  A
C609        H613   1.084       .  S
C610       C2338   1.462       .  S
C610        C611   1.400   1_556  A
C611        H614   1.083       .  S
O615       Ni623   1.884       .  S
O615        C625   1.276       .  A
O616       Ni623   1.953       .  S
O616        C626   1.293       .  A
O617       Ni623   1.960       .  S
O617        C627   1.289       .  A
O618       Ni623   1.906       .  S
O618        C628   1.278       .  A
O619       Ni624   1.880       .  S
O619        C628   1.277       .  A
O620       Ni624   1.942       .  S
O620        C627   1.289       .  A
O621       Ni624   1.956       .  S
O621        C626   1.289       .  A
O622       Ni624   1.899       .  S
O622        C625   1.276       .  A
Ni623      Ni624   2.389       .  S
C625       C2402   1.439       .  S
C628       C2341   1.451       .  S
O629       Ni637   1.877       .  S
O629        C639   1.278       .  A
O630       Ni637   1.913       .  S
O630        C640   1.278       .  A
O631       Ni637   1.917       .  S
O631        C641   1.283       .  A
O632       Ni637   1.886       .  S
O632        C642   1.275       .  A
O633       Ni638   1.903       .  S
O633        C642   1.278       .  A
O634       Ni638   1.954       .  S
O634        C641   1.292       .  A
O635       Ni638   1.956       .  S
O635        C640   1.290       .  A
O636       Ni638   1.894       .  S
O636        C639   1.275       .  A
Ni637      Ni638   2.392       .  S
C639       C2389   1.452       .  S
C641        C829   1.521       .  S
C642       C2434   1.441       .  S
O643       Ni651   1.900       .  S
O643        C653   1.277       .  A
O644       Ni651   1.954       .  S
O644        C654   1.296       .  A
O645       Ni651   1.958       .  S
O645        C655   1.290       .  A
O646       Ni651   1.892       .  S
O646        C656   1.269       .  A
O647       Ni652   1.919       .  S
O647        C656   1.286       .  A
O648       Ni652   1.983       .  S
O648        C655   1.295       .  A
O649       Ni652   1.950       .  S
O649        C654   1.286       .  A
O650       Ni652   1.876       .  S
O650        C653   1.274       .  A
Ni651      Ni652   2.384       .  S
C653       C2418   1.443       .  S
C656       C2501   1.469       .  S
O657       Ni665   1.900       .  S
O657        C667   1.281       .  A
O658       Ni665   1.964       .  S
O658        C668   1.290       .  A
O659       Ni665   1.964       .  S
O659        C669   1.293       .  A
O660       Ni665   1.892       .  S
O660        C670   1.278       .  A
O661       Ni666   1.904       .  S
O661        C670   1.277       .  A
O662       Ni666   1.963       .  S
O662        C669   1.292       .  A
O663       Ni666   1.945       .  S
O663        C668   1.293       .  A
O664       Ni666   1.881       .  S
O664        C667   1.272       .  A
Ni665      Ni666   2.387       .  S
C667       C2453   1.455       .  S
C670       C2370   1.448       .  S
O671       Ni679   1.902       .  S
O671        C681   1.282       .  A
O672       Ni679   1.937       .  S
O672        C682   1.285       .  A
O673       Ni679   1.886       .  S
O673        C683   1.274       .  A
O674       Ni679   1.918       .  S
O674        C684   1.286       .  A
O675       Ni680   1.955       .  S
O675        C684   1.288       .  A
O676       Ni680   1.920       .  S
O676        C683   1.283       .  A
O677       Ni680   1.949       .  S
O677        C682   1.290       .  A
O678       Ni680   1.892       .  S
O678        C681   1.274       .  A
Ni679      Ni680   2.388       .  S
C681       C2469   1.457       .  S
C683       C2485   1.449       .  S
O685       Ni693   1.900       .  S
O685        C695   1.280       .  A
O686       Ni693   1.928       .  S
O686        C696   1.287       .  A
O687       Ni693   1.910       .  S
O687        C697   1.282       .  A
O688       Ni693   1.876       .  S
O688        C698   1.270       .  A
O689       Ni694   1.914       .  S
O689        C698   1.284       .  A
O690       Ni694   1.956       .  S
O690        C697   1.289       .  A
O691       Ni694   1.924       .  S
O691        C696   1.278       .  A
O692       Ni694   1.870       .  S
O692        C695   1.270       .  A
Ni693      Ni694   2.392       .  S
C695       C2354   1.441       .  S
C696       C1252   1.502       .  S
C698       C2517   1.448       .  S
C699       C2290   1.441       .  S
C699        C700   1.392       .  A
C699        C704   1.388       .  A
C700        C701   1.397       .  A
C700        H705   1.083       .  S
C701       C2322   1.441       .  S
C701        C702   1.389       .  A
C702        C703   1.386       .  A
C702        H706   1.085       .  S
C703       C2306   1.441       .  S
C703        C704   1.377       .  A
C704        H707   1.084       .  S
O708       Ni716   1.885       .  S
O708        C718   1.274       .  A
O709       Ni716   1.980       .  S
O709        C719   1.299       .  A
O710       Ni716   1.981       .  S
O710        C720   1.296       .  A
O711       Ni716   1.898       .  S
O711        C721   1.276       .  A
O712       Ni717   1.886       .  S
O712        C721   1.276       .  A
O713       Ni717   1.954       .  S
O713        C720   1.294       .  A
O714       Ni717   1.964       .  S
O714        C719   1.291       .  A
O715       Ni717   1.897       .  S
O715        C718   1.272       .  A
Ni716      Ni717   2.382       .  S
C718       C2293   1.445       .  S
C721       C2274   1.462       .  S
C722       C2242   1.464       .  S
C722        C723   1.393   1_554  A
C722        C727   1.394       .  A
C723        C724   1.382       .  A
C723        H728   1.085       .  S
C724       C2258   1.443       .  S
C724        C725   1.393       .  A
C725        C726   1.391   1_556  A
C725        H729   1.075       .  S
C726       C2226   1.478       .  S
C726        C727   1.408       .  A
C727        H730   1.075       .  S
C731       C2178   1.473       .  S
C731        C732   1.397       .  A
C731        C736   1.402       .  A
C732        C733   1.399   1_554  A
C732        H737   1.084   1_554  S
C733       C2210   1.465       .  S
C733        C734   1.390   1_556  A
C734        C735   1.393       .  A
C734        H738   1.083   1_554  S
C735       C2194   1.468       .  S
C735        C736   1.399       .  A
C736        H739   1.082       .  S
C740       C2277   1.466       .  S
C740        C741   1.395       .  A
C740        C745   1.407       .  A
C741        C742   1.385       .  A
C741        H746   1.083       .  S
C742       C2146   1.440       .  S
C742        C743   1.381       .  A
C743        C744   1.391       .  A
C743        H747   1.086       .  S
C744       C2162   1.467       .  S
C744        C745   1.399       .  A
C745        H748   1.080       .  S
O749       Ni757   1.874       .  S
O749        C759   1.271       .  A
O750       Ni757   1.913       .  S
O750        C760   1.281       .  A
O751       Ni757   1.929       .  S
O751        C761   1.289       .  A
O752       Ni757   1.907       .  S
O752        C762   1.280       .  A
O753       Ni758   1.902       .  S
O753        C762   1.275       .  A
O754       Ni758   1.945       .  S
O754        C761   1.284       .  A
O755       Ni758   1.962       .  S
O755        C760   1.290       .  A
O756       Ni758   1.906       .  S
O756        C759   1.279       .  A
Ni757      Ni758   2.390       .  S
C759       C2149   1.433       .  S
C762       C2181   1.461       .  S
O763       Ni771   1.901       .  S
O763        C773   1.276       .  A
O764       Ni771   1.948       .  S
O764        C774   1.288       .  A
O765       Ni771   1.928       .  S
O765        C775   1.287       .  A
O766       Ni771   1.891       .  S
O766        C776   1.279       .  A
O767       Ni772   1.891       .  S
O767        C776   1.274       .  A
O768       Ni772   1.943       .  S
O768        C775   1.287       .  A
O769       Ni772   1.956       .  S
O769        C774   1.291       .  A
O770       Ni772   1.894       .  S
O770        C773   1.279       .  A
Ni771      Ni772   2.390       .  S
C773       C2165   1.458       .  S
C776       C2229   1.455       .  S
O777       Ni785   1.902       .  S
O777        C787   1.273       .  A
O778       Ni785   1.967       .  S
O778        C788   1.292       .  A
O779       Ni785   1.975       .  S
O779        C789   1.296       .  A
O780       Ni785   1.921       .  S
O780        C790   1.282       .  A
O781       Ni786   1.902       .  S
O781        C790   1.276       .  A
O782       Ni786   1.966       .  S
O782        C789   1.291       .  A
O783       Ni786   1.956       .  S
O783        C788   1.292       .  A
O784       Ni786   1.909       .  S
O784        C787   1.283       .  A
Ni785      Ni786   2.381       .  S
C787       C2213   1.470       .  S
C788        C826   1.556       .  S
C790       C2261   1.462       .  S
O791       Ni799   1.874       .  S
O791        C801   1.276       .  A
O792       Ni799   1.905       .  S
O792        C802   1.281       .  A
O793       Ni799   1.907       .  S
O793        C803   1.282       .  A
O794       Ni799   1.889       .  S
O794        C804   1.277       .  A
O795       Ni800   1.894       .  S
O795        C804   1.277       .  A
O796       Ni800   1.941       .  S
O796        C803   1.287       .  A
O797       Ni800   1.941       .  S
O797        C802   1.286       .  A
O798       Ni800   1.895       .  S
O798        C801   1.276       .  A
Ni799      Ni800   2.396       .  S
C801       C2309   1.442       .  S
C804       C2245   1.451       .  S
O805       Ni813   1.883       .  S
O805        C815   1.271       .  A
O806       Ni813   1.920       .  S
O806        C816   1.279       .  A
O807       Ni813   1.942       .  S
O807        C817   1.292       .  A
O808       Ni813   1.897       .  S
O808        C818   1.279       .  A
O809       Ni814   1.883       .  S
O809        C818   1.272       .  A
O810       Ni814   1.934       .  S
O810        C817   1.281       .  A
O811       Ni814   1.954       .  S
O811        C816   1.295       .  A
O812       Ni814   1.922       .  S
O812        C815   1.285       .  A
Ni813      Ni814   2.391       .  S
C815       C2197   1.461       .  S
C818       C2325   1.438       .  S
O819       Ni825   1.892       .  S
O819        C840   1.267       .  A
O820       Ni843   1.967       .  S
O820        C829   1.283       .  A
O821       Ni825   1.922       .  S
O821       Ni843   1.946       .  S
O821       Ni837   1.925       .  S
O821        H844   0.962       .  S
C822        O839   1.289       .  A
C822        O831   1.276       .  A
O823       Ni842   1.929       .  S
O823        C829   1.276       .  A
O824       Ni842   1.983       .  S
O824        C826   1.280       .  A
Ni825       O828   1.888       .  S
Ni825       O830   1.956       .  S
C826        O836   1.279       .  A
O827       Ni843   1.985       .  S
O827        C833   1.283       .  A
O828        C833   1.262       .  A
O830        C832   1.280       .  A
O831       Ni842   1.940       .  S
C832        O838   1.283       .  A
C832       C1187   1.531       .  S
C833        C947   1.518       .  S
H834        O835   0.968       .  S
O835       Ni843   1.916       .  S
O835       Ni837   1.935       .  S
O835       Ni842   1.913       .  S
O836       Ni837   1.993       .  S
Ni837       O841   1.963       .  S
Ni837       O839   1.982       .  S
O838       Ni843   1.997       .  S
C840        O841   1.283       .  A
C840       C1080   1.492       .  S
O845       Ni851   1.889   1_655  S
O845        C866   1.265       .  A
O846       Ni869   1.948       .  S
O846        C855   1.271       .  A
O847       Ni851   1.913       .  S
O847       Ni869   1.922   1_545  S
O847       Ni863   1.935   1_455  S
O847        H870   0.966       .  S
C848        O865   1.296       .  A
C848        O857   1.277       .  A
C848       C1228   1.536       .  S
O849       Ni868   1.905   1_565  S
O849        C855   1.269       .  A
O850       Ni868   1.967       .  S
O850        C852   1.280       .  A
Ni851       O854   1.944   1_545  S
Ni851       O856   1.982   1_445  S
C852        O862   1.273       .  A
C852       C1310   1.528       .  S
O853       Ni869   1.992       .  S
O853        C859   1.294       .  A
O854        C859   1.274       .  A
O856        C858   1.274       .  A
O857       Ni868   1.941   1_655  S
C858        O864   1.278       .  A
C859       C1094   1.544       .  S
H860        O861   0.966   1_665  S
O861       Ni869   1.950   1_545  S
O861       Ni863   1.933   1_455  S
O861       Ni868   1.932       .  S
O862       Ni863   1.962   1_455  S
Ni863       O867   1.967       .  S
Ni863       O865   1.990       .  S
O864       Ni869   1.999   1_655  S
C866        O867   1.279       .  A
C866        C974   1.499       .  S
C871       C2101   1.472       .  S
C871        C872   1.392       .  A
C871        C876   1.402       .  A
C872        C873   1.396       .  A
C872        H877   1.076       .  S
C873       C2130   1.473   1_545  S
C873        C874   1.394       .  A
C874        C875   1.395       .  A
C874        H878   1.079       .  S
C875       C2117   1.458       .  S
C875        C876   1.396       .  A
C876        H879   1.084       .  S
C880       C2066   1.452   1_545  S
C880        C881   1.391       .  A
C880        C885   1.394       .  A
C881        C882   1.388       .  A
C881        H886   1.085       .  S
C882       C2085   1.444       .  S
C882        C883   1.391       .  A
C883        C884   1.389       .  A
C883        H887   1.085       .  S
C884       C2050   1.444       .  S
C884        C885   1.392       .  A
C885        H888   1.085       .  S
C889       C2018   1.482       .  S
C889        C890   1.407       .  A
C889        C894   1.400       .  A
C890        C891   1.404       .  A
C890        H895   1.081       .  S
C891       C2034   1.474       .  S
C891        C892   1.397       .  A
C892        C893   1.385       .  A
C892        H896   1.083       .  S
C893       C2002   1.451       .  S
C893        C894   1.391       .  A
C894        H897   1.083       .  S
O898       Ni906   1.920       .  S
O898        C908   1.285       .  A
O899       Ni906   1.983       .  S
O899        C909   1.298       .  A
O900       Ni906   1.946       .  S
O900        C910   1.288       .  A
O901       Ni906   1.886       .  S
O901        C911   1.273       .  A
O902       Ni907   1.913       .  S
O902        C911   1.281       .  A
O903       Ni907   1.962       .  S
O903        C910   1.292       .  A
O904       Ni907   1.951       .  S
O904        C909   1.289       .  A
O905       Ni907   1.889       .  S
O905        C908   1.272       .  A
Ni906      Ni907   2.385       .  S
C908       C2021   1.474       .  S
C911       C2053   1.446       .  S
O912       Ni920   1.907       .  S
O912        C922   1.278       .  A
O913       Ni920   1.966       .  S
O913        C923   1.290       .  A
O914       Ni920   1.941       .  S
O914        C924   1.293       .  A
O915       Ni920   1.901       .  S
O915        C925   1.276       .  A
O916       Ni921   1.908       .  S
O916        C925   1.280       .  A
O917       Ni921   1.970       .  S
O917        C924   1.291       .  A
O918       Ni921   1.967       .  S
O918        C923   1.295       .  A
O919       Ni921   1.891       .  S
O919        C922   1.278       .  A
Ni920      Ni921   2.385       .  S
C922       C2098   1.467       .  S
C925       C2005   1.454       .  S
C926       C1957   1.457       .  S
C926        C927   1.395       .  A
C926        C931   1.392       .  A
C927        C928   1.387       .  A
C927        H932   1.085       .  S
C928       C1986   1.447       .  S
C928        C929   1.382       .  A
C929        C930   1.389       .  A
C929        H933   1.084       .  S
C930       C1973   1.434       .  S
C930        C931   1.392       .  A
C931        H934   1.081       .  S
O935       Ni943   1.917       .  S
O935        C945   1.280       .  A
O936       Ni943   1.957       .  S
O936        C946   1.289       .  A
O937       Ni943   1.924       .  S
O937        C947   1.287       .  A
O938       Ni943   1.881       .  S
O938        C948   1.272       .  A
O939       Ni944   1.919       .  S
O939        C948   1.283       .  A
O940       Ni944   1.945       .  S
O940        C947   1.286       .  A
O941       Ni944   1.910       .  S
O941        C946   1.283       .  A
O942       Ni944   1.846       .  S
O942        C945   1.272       .  A
Ni943      Ni944   2.391       .  S
C945       C1954   1.452       .  S
C948       C2037   1.451       .  S
O949       Ni957   1.916       .  S
O949        C959   1.280       .  A
O950       Ni957   1.968       .  S
O950        C960   1.294       .  A
O951       Ni957   1.933       .  S
O951        C961   1.289       .  A
O952       Ni957   1.875       .  S
O952        C962   1.271       .  A
O953       Ni958   1.921       .  S
O953        C962   1.284       .  A
O954       Ni958   1.972       .  S
O954        C961   1.292       .  A
O955       Ni958   1.951       .  S
O955        C960   1.288       .  A
O956       Ni958   1.871       .  S
O956        C959   1.274       .  A
Ni957      Ni958   2.384       .  S
C959       C2133   1.463       .  S
C962       C2069   1.451       .  S
O963       Ni971   1.886       .  S
O963        C973   1.279       .  A
O964       Ni971   1.909       .  S
O964        C974   1.284       .  A
O965       Ni971   1.912       .  S
O965        C975   1.281       .  A
O966       Ni971   1.886       .  S
O966        C976   1.273       .  A
O967       Ni972   1.915       .  S
O967        C976   1.282       .  A
O968       Ni972   1.965       .  S
O968        C975   1.293       .  A
O969       Ni972   1.932       .  S
O969        C974   1.283       .  A
O970       Ni972   1.882       .  S
O970        C973   1.272       .  A
Ni971      Ni972   2.397       .  S
C973       C1989   1.439       .  S
C975       C1241   1.515       .  S
C976       C2082   1.444       .  S
O977       Ni985   1.877       .  S
O977        C987   1.277       .  A
O978       Ni985   1.936       .  S
O978        C988   1.289       .  A
O979       Ni985   1.944       .  S
O979        C989   1.283       .  A
O980       Ni985   1.908       .  S
O980        C990   1.279       .  A
O981       Ni986   1.915       .  S
O981        C990   1.282       .  A
O982       Ni986   1.942       .  S
O982        C989   1.293       .  A
O983       Ni986   1.948       .  S
O983        C988   1.285       .  A
O984       Ni986   1.887       .  S
O984        C987   1.273       .  A
Ni985      Ni986   2.391       .  S
C987       C1970   1.433       .  S
C990       C2114   1.469       .  S
C991       C1938   1.436       .  S
C991        C992   1.388   1_455  A
C991        C996   1.387       .  A
C992        C993   1.385       .  A
C992        H997   1.080       .  S
C993       C1922   1.460       .  S
C993        C994   1.400       .  A
C994        C995   1.386   1_655  A
C994        H998   1.081       .  S
C995       C1906   1.457       .  S
C995        C996   1.390       .  A
C996        H999   1.085       .  S
O1000     Ni1008   1.884       .  S
O1000      C1010   1.275       .  A
O1001     Ni1008   1.940       .  S
O1001      C1011   1.289       .  A
O1002     Ni1008   1.964       .  S
O1002      C1012   1.289       .  A
O1003     Ni1008   1.909       .  S
O1003      C1013   1.281       .  A
O1004     Ni1009   1.871       .  S
O1004      C1013   1.270       .  A
O1005     Ni1009   1.938       .  S
O1005      C1012   1.290       .  A
O1006     Ni1009   1.959       .  S
O1006      C1011   1.288       .  A
O1007     Ni1009   1.903       .  S
O1007      C1010   1.278       .  A
Ni1008    Ni1009   2.383       .  S
C1010      C1893   1.454       .  S
C1013      C1909   1.451       .  S
C1014      C1842   1.465       .  S
C1014      C1015   1.387       .  A
C1014      C1019   1.395       .  A
C1015      C1016   1.396       .  A
C1015      H1020   1.082       .  S
C1016      C1858   1.458       .  S
C1016      C1017   1.401       .  A
C1017      C1018   1.402       .  A
C1017      H1021   1.082       .  S
C1018      C1874   1.471       .  S
C1018      C1019   1.395       .  A
C1019      H1022   1.085       .  S
C1023      C1810   1.458       .  S
C1023      C1024   1.388       .  A
C1023      C1028   1.387       .  A
C1024      C1025   1.392       .  A
C1024      H1029   1.085       .  S
C1025      C1890   1.454       .  S
C1025      C1026   1.393       .  A
C1026      C1027   1.401       .  A
C1026      H1030   1.081       .  S
C1027      C1829   1.466       .  S
C1027      C1028   1.388       .  A
C1028      H1031   1.073       .  S
O1032     Ni1040   1.864       .  S
O1032      C1042   1.270       .  A
O1033     Ni1040   1.921       .  S
O1033      C1043   1.284       .  A
O1034     Ni1040   1.941       .  S
O1034      C1044   1.285       .  A
O1035     Ni1040   1.919       .  S
O1035      C1045   1.283       .  A
O1036     Ni1041   1.858       .  S
O1036      C1045   1.266       .  A
O1037     Ni1041   1.915       .  S
O1037      C1044   1.285       .  A
O1038     Ni1041   1.977       .  S
O1038      C1043   1.292       .  A
O1039     Ni1041   1.931       .  S
O1039      C1042   1.286       .  A
Ni1040    Ni1041   2.386       .  S
C1042      C1845   1.451       .  S
C1045      C1813   1.441       .  S
C1046      C1778   1.448       .  S
C1046      C1047   1.394       .  A
C1046      C1051   1.385       .  A
C1047      C1048   1.405       .  A
C1047      H1052   1.084       .  S
C1048      C1794   1.466       .  S
C1048      C1049   1.390       .  A
C1049      C1050   1.387       .  A
C1049      H1053   1.081   1_455  S
C1050      C1765   1.436   1_455  S
C1050      C1051   1.385       .  A
C1051      H1054   1.085       .  S
O1055     Ni1063   1.914       .  S
O1055      C1065   1.280       .  A
O1056     Ni1063   1.952       .  S
O1056      C1066   1.288       .  A
O1057     Ni1063   1.894       .  S
O1057      C1067   1.275       .  A
O1058     Ni1063   1.922       .  S
O1058      C1068   1.287       .  A
O1059     Ni1064   1.957       .  S
O1059      C1068   1.289       .  A
O1060     Ni1064   1.914       .  S
O1060      C1067   1.281       .  A
O1061     Ni1064   1.947       .  S
O1061      C1066   1.290       .  A
O1062     Ni1064   1.879       .  S
O1062      C1065   1.276       .  A
Ni1063    Ni1064   2.388       .  S
C1065      C1826   1.465       .  S
C1066      C1244   1.524       .  S
C1067      C1781   1.453       .  S
O1069     Ni1077   1.880       .  S
O1069      C1079   1.271       .  A
O1070     Ni1077   1.895       .  S
O1070      C1080   1.280       .  A
O1071     Ni1077   1.916       .  S
O1071      C1081   1.283       .  A
O1072     Ni1077   1.891       .  S
O1072      C1082   1.276       .  A
O1073     Ni1078   1.885       .  S
O1073      C1082   1.274       .  A
O1074     Ni1078   1.939       .  S
O1074      C1081   1.287       .  A
O1075     Ni1078   1.933       .  S
O1075      C1080   1.281       .  A
O1076     Ni1078   1.885       .  S
O1076      C1079   1.279       .  A
Ni1077    Ni1078   2.397       .  S
C1079      C1925   1.440       .  S
C1082      C1762   1.432       .  S
O1083     Ni1091   1.899       .  S
O1083      C1093   1.282       .  A
O1084     Ni1091   1.950       .  S
O1084      C1094   1.291       .  A
O1085     Ni1091   1.890       .  S
O1085      C1095   1.274       .  A
O1086     Ni1091   1.945       .  S
O1086      C1096   1.288       .  A
O1087     Ni1092   1.971       .  S
O1087      C1096   1.293       .  A
O1088     Ni1092   1.905       .  S
O1088      C1095   1.278       .  A
O1089     Ni1092   1.956       .  S
O1089      C1094   1.289       .  A
O1090     Ni1092   1.910       .  S
O1090      C1093   1.276       .  A
Ni1091    Ni1092   2.385       .  S
C1093      C1877   1.475       .  S
C1095      C1941   1.442       .  S
O1097     Ni1105   1.889       .  S
O1097      C1107   1.273       .  A
O1098     Ni1105   1.946       .  S
O1098      C1108   1.286       .  A
O1099     Ni1105   1.967       .  S
O1099      C1109   1.295       .  A
O1100     Ni1105   1.916       .  S
O1100      C1110   1.285       .  A
O1101     Ni1106   1.875       .  S
O1101      C1110   1.270       .  A
O1102     Ni1106   1.947       .  S
O1102      C1109   1.286       .  A
O1103     Ni1106   1.959       .  S
O1103      C1108   1.293       .  A
O1104     Ni1106   1.917       .  S
O1104      C1107   1.284       .  A
Ni1105    Ni1106   2.386       .  S
C1107      C1861   1.457       .  S
C1110      C1797   1.451       .  S
C1111      C1733   1.440       .  S
C1111      C1112   1.382       .  A
C1111      C1116   1.384       .  A
C1112      C1113   1.374       .  A
C1112      H1117   1.087       .  S
C1113      C1714   1.456       .  S
C1113      C1114   1.403       .  A
C1114      C1115   1.403       .  A
C1114      H1118   1.077       .  S
C1115      C1746   1.470       .  S
C1115      C1116   1.403       .  A
C1116      H1119   1.083       .  S
O1120     Ni1128   1.906       .  S
O1120      C1130   1.279       .  A
O1121     Ni1128   1.954       .  S
O1121      C1131   1.286       .  A
O1122     Ni1128   1.930       .  S
O1122      C1132   1.287       .  A
O1123     Ni1128   1.861       .  S
O1123      C1133   1.273       .  A
O1124     Ni1129   1.903       .  S
O1124      C1133   1.278       .  A
O1125     Ni1129   1.954       .  S
O1125      C1132   1.289       .  A
O1126     Ni1129   1.934       .  S
O1126      C1131   1.290       .  A
O1127     Ni1129   1.883       .  S
O1127      C1130   1.275       .  A
Ni1128    Ni1129   2.386       .  S
C1130      C1698   1.473       .  S
C1133      C1730   1.438       .  S
C1134      C1666   1.453       .  S
C1134      C1135   1.397       .  A
C1134      C1139   1.387       .  A
C1135      C1136   1.409       .  A
C1135      H1140   1.077       .  S
C1136      C1701   1.490       .  S
C1136      C1137   1.403       .  A
C1137      C1138   1.388       .  A
C1137      H1141   1.079       .  S
C1138      C1682   1.446       .  S
C1138      C1139   1.386       .  A
C1139      H1142   1.084       .  S
C1143      C1618   1.461       .  S
C1143      C1144   1.396       .  A
C1143      C1148   1.395       .  A
C1144      C1145   1.395   1_655  A
C1144      H1149   1.084   1_655  S
C1145      C1650   1.470       .  S
C1145      C1146   1.391       .  A
C1146      C1147   1.392   1_455  A
C1146      H1150   1.083       .  S
C1147      C1634   1.449       .  S
C1147      C1148   1.396       .  A
C1148      H1151   1.083       .  S
C1152      C1570   1.476       .  S
C1152      C1153   1.392       .  A
C1152      C1157   1.407       .  A
C1153      C1154   1.387       .  A
C1153      H1158   1.084   1_655  S
C1154      C1605   1.444   1_655  S
C1154      C1155   1.383       .  A
C1155      C1156   1.397       .  A
C1155      H1159   1.084       .  S
C1156      C1586   1.471       .  S
C1156      C1157   1.406       .  A
C1157      H1160   1.080       .  S
O1161     Ni1169   1.866       .  S
O1161      C1171   1.268       .  A
O1162     Ni1169   1.940       .  S
O1162      C1172   1.286       .  A
O1163     Ni1169   1.964       .  S
O1163      C1173   1.293       .  A
O1164     Ni1169   1.919       .  S
O1164      C1174   1.283       .  A
O1165     Ni1170   1.878       .  S
O1165      C1174   1.270       .  A
O1166     Ni1170   1.914       .  S
O1166      C1173   1.283       .  A
O1167     Ni1170   1.954       .  S
O1167      C1172   1.290       .  A
O1168     Ni1170   1.918       .  S
O1168      C1171   1.285       .  A
Ni1169    Ni1170   2.392       .  S
C1171      C1653   1.448       .  S
C1174      C1602   1.446       .  S
O1175     Ni1183   1.902       .  S
O1175      C1185   1.274       .  A
O1176     Ni1183   1.943       .  S
O1176      C1186   1.286       .  A
O1177     Ni1183   1.959       .  S
O1177      C1187   1.290       .  A
O1178     Ni1183   1.894       .  S
O1178      C1188   1.280       .  A
O1179     Ni1184   1.901       .  S
O1179      C1188   1.276       .  A
O1180     Ni1184   1.945       .  S
O1180      C1187   1.287       .  A
O1181     Ni1184   1.940       .  S
O1181      C1186   1.291       .  A
O1182     Ni1184   1.905       .  S
O1182      C1185   1.277       .  A
Ni1183    Ni1184   2.386       .  S
C1185      C1669   1.448       .  S
C1186      C1245   1.526       .  S
C1188      C1573   1.465       .  S
O1189     Ni1197   1.908       .  S
O1189      C1199   1.279       .  A
O1190     Ni1197   1.941       .  S
O1190      C1200   1.285       .  A
O1191     Ni1197   1.923       .  S
O1191      C1201   1.284       .  A
O1192     Ni1197   1.882       .  S
O1192      C1202   1.273       .  A
O1193     Ni1198   1.914       .  S
O1193      C1202   1.280       .  A
O1194     Ni1198   1.959       .  S
O1194      C1201   1.292       .  A
O1195     Ni1198   1.961       .  S
O1195      C1200   1.291       .  A
O1196     Ni1198   1.897       .  S
O1196      C1199   1.278       .  A
Ni1197    Ni1198   2.387       .  S
C1199      C1749   1.468       .  S
C1202      C1637   1.445       .  S
O1203     Ni1211   1.881       .  S
O1203      C1213   1.271       .  A
O1204     Ni1211   1.955       .  S
O1204      C1214   1.289       .  A
O1205     Ni1211   1.960       .  S
O1205      C1215   1.294       .  A
O1206     Ni1211   1.915       .  S
O1206      C1216   1.283       .  A
O1207     Ni1212   1.887       .  S
O1207      C1216   1.274       .  A
O1208     Ni1212   1.960       .  S
O1208      C1215   1.290       .  A
O1209     Ni1212   1.971       .  S
O1209      C1214   1.295       .  A
O1210     Ni1212   1.911       .  S
O1210      C1213   1.284       .  A
Ni1211    Ni1212   2.385       .  S
C1213      C1685   1.464       .  S
C1216      C1621   1.457       .  S
O1217     Ni1225   1.886       .  S
O1217      C1227   1.278       .  A
O1218     Ni1225   1.955       .  S
O1218      C1228   1.289       .  A
O1219     Ni1225   1.945       .  S
O1219      C1229   1.286       .  A
O1220     Ni1225   1.902       .  S
O1220      C1230   1.277       .  A
O1221     Ni1226   1.897       .  S
O1221      C1230   1.276       .  A
O1222     Ni1226   1.948       .  S
O1222      C1229   1.295       .  A
O1223     Ni1226   1.967       .  S
O1223      C1228   1.290       .  A
O1224     Ni1226   1.906       .  S
O1224      C1227   1.277       .  A
Ni1225    Ni1226   2.388       .  S
C1227      C1717   1.443       .  S
C1230      C1589   1.458       .  S
O1231     Ni1237   1.884       .  S
O1231      C1252   1.263       .  A
O1232     Ni1255   1.966       .  S
O1232      C1241   1.276       .  A
O1233     Ni1237   1.927   1_655  S
O1233     Ni1255   1.926       .  S
O1233     Ni1249   1.943   1_655  S
O1233      H1256   0.966       .  S
C1234      O1251   1.296       .  A
C1234      O1243   1.280       .  A
C1234      C1348   1.537       .  S
O1235     Ni1254   1.911       .  S
O1235      C1241   1.273       .  A
O1236     Ni1254   1.975       .  S
O1236      C1238   1.282       .  A
Ni1237     O1240   1.923   1_455  S
Ni1237     O1242   1.955       .  S
C1238      O1248   1.278       .  A
O1239     Ni1255   1.994       .  S
O1239      C1245   1.300       .  A
O1240      C1245   1.275       .  A
O1242      C1244   1.276       .  A
O1243     Ni1254   1.948   1_455  S
C1244      O1250   1.271       .  A
H1246      O1247   0.966       .  S
O1247     Ni1255   1.949   1_455  S
O1247     Ni1249   1.927       .  S
O1247     Ni1254   1.924   1_455  S
O1248     Ni1249   1.973   1_655  S
Ni1249     O1253   1.968       .  S
Ni1249     O1251   1.989       .  S
O1250     Ni1255   1.962   1_455  S
C1252      O1253   1.278       .  A
C1257      C1557   1.444   1_455  S
C1257      C1258   1.374       .  A
C1257      C1262   1.391       .  A
C1258      C1259   1.385       .  A
C1258      H1263   1.085       .  S
C1259      C1538   1.470   1_554  S
C1259      C1260   1.400       .  A
C1260      C1261   1.419       .  A
C1260      H1264   1.080       .  S
C1261      C1525   1.489       .  S
C1261      C1262   1.400       .  A
C1262      H1265   1.071   1_455  S
O1266     Ni1274   1.894       .  S
O1266      C1276   1.282       .  A
O1267     Ni1274   1.951       .  S
O1267      C1277   1.289       .  A
O1268     Ni1274   1.925       .  S
O1268      C1278   1.287       .  A
O1269     Ni1274   1.877       .  S
O1269      C1279   1.271       .  A
O1270     Ni1275   1.907       .  S
O1270      C1279   1.282       .  A
O1271     Ni1275   1.955       .  S
O1271      C1278   1.291       .  A
O1272     Ni1275   1.969       .  S
O1272      C1277   1.294       .  A
O1273     Ni1275   1.897       .  S
O1273      C1276   1.275       .  A
Ni1274    Ni1275   2.384       .  S
C1276      C1522   1.470       .  S
C1279      C1509   1.457       .  S
C1280      C1490   1.456       .  S
C1280      C1281   1.384   1_455  A
C1280      C1285   1.392       .  A
C1281      C1282   1.390   1_565  A
C1281      H1286   1.083       .  S
C1282      C1474   1.467       .  S
C1282      C1283   1.392       .  A
C1283      C1284   1.401   1_655  A
C1283      H1287   1.078       .  S
C1284      C1458   1.471       .  S
C1284      C1285   1.393   1_545  A
C1285      H1288   1.081       .  S
C1289      C1506   1.462       .  S
C1289      C1290   1.394       .  A
C1289      C1294   1.399       .  A
C1290      C1291   1.392       .  A
C1290      H1295   1.082       .  S
C1291      C1442   1.446       .  S
C1291      C1292   1.386       .  A
C1292      C1293   1.392       .  A
C1292      H1296   1.084       .  S
C1293      C1429   1.457       .  S
C1293      C1294   1.393       .  A
C1294      H1297   1.085       .  S
O1298     Ni1306   1.904       .  S
O1298      C1308   1.281       .  A
O1299     Ni1306   1.959       .  S
O1299      C1309   1.290       .  A
O1300     Ni1306   1.945       .  S
O1300      C1310   1.290       .  A
O1301     Ni1306   1.883       .  S
O1301      C1311   1.277       .  A
O1302     Ni1307   1.903       .  S
O1302      C1311   1.278       .  A
O1303     Ni1307   1.943       .  S
O1303      C1310   1.287       .  A
O1304     Ni1307   1.918       .  S
O1304      C1309   1.285       .  A
O1305     Ni1307   1.875       .  S
O1305      C1308   1.271       .  A
Ni1306    Ni1307   2.388       .  S
C1308      C1461   1.461       .  S
C1311      C1426   1.457       .  S
C1312      C1413   1.460   1_554  S
C1312      C1313   1.404       .  A
C1312      C1317   1.393       .  A
C1313      C1314   1.404       .  A
C1313      H1318   1.084       .  S
C1314      C1394   1.458   1_545  S
C1314      C1315   1.384       .  A
C1315      C1316   1.384       .  A
C1315      H1319   1.086       .  S
C1316      C1378   1.450       .  S
C1316      C1317   1.389       .  A
C1317      H1320   1.081       .  S
O1321     Ni1329   1.891       .  S
O1321      C1331   1.274       .  A
O1322     Ni1329   1.954       .  S
O1322      C1332   1.289       .  A
O1323     Ni1329   1.897       .  S
O1323      C1333   1.277       .  A
O1324     Ni1329   1.954       .  S
O1324      C1334   1.297       .  A
O1325     Ni1330   1.942       .  S
O1325      C1334   1.286       .  A
O1326     Ni1330   1.879       .  S
O1326      C1333   1.275       .  A
O1327     Ni1330   1.944       .  S
O1327      C1332   1.293       .  A
O1328     Ni1330   1.885       .  S
O1328      C1331   1.278       .  A
Ni1329    Ni1330   2.394       .  S
C1331      C1381   1.436       .  S
C1333      C1445   1.445       .  S
O1335     Ni1343   1.911       .  S
O1335      C1345   1.279       .  A
O1336     Ni1343   1.956       .  S
O1336      C1346   1.284       .  A
O1337     Ni1343   1.899       .  S
O1337      C1347   1.278       .  A
O1338     Ni1343   1.952       .  S
O1338      C1348   1.290       .  A
O1339     Ni1344   1.961       .  S
O1339      C1348   1.290       .  A
O1340     Ni1344   1.909       .  S
O1340      C1347   1.279       .  A
O1341     Ni1344   1.939       .  S
O1341      C1346   1.290       .  A
O1342     Ni1344   1.877       .  S
O1342      C1345   1.276       .  A
Ni1343    Ni1344   2.386       .  S
C1345      C1541   1.453       .  S
C1347      C1410   1.456       .  S
O1349     Ni1357   1.896       .  S
O1349      C1359   1.276       .  A
O1350     Ni1357   1.954       .  S
O1350      C1360   1.286       .  A
O1351     Ni1357   1.954       .  S
O1351      C1361   1.290       .  A
O1352     Ni1357   1.895       .  S
O1352      C1362   1.278       .  A
O1353     Ni1358   1.905       .  S
O1353      C1362   1.277       .  A
O1354     Ni1358   1.945       .  S
O1354      C1361   1.288       .  A
O1355     Ni1358   1.949       .  S
O1355      C1360   1.293       .  A
O1356     Ni1358   1.896       .  S
O1356      C1359   1.277       .  A
Ni1357    Ni1358   2.387       .  S
C1359      C1493   1.449       .  S
C1362      C1397   1.462       .  S
O1363     Ni1371   1.926       .  S
O1363      C1373   1.287       .  A
O1364     Ni1371   1.889       .  S
O1364      C1374   1.274       .  A
O1365     Ni1371   1.885       .  S
O1365      C1375   1.273       .  A
O1366     Ni1371   1.917       .  S
O1366      C1376   1.285       .  A
O1367     Ni1372   1.933       .  S
O1367      C1376   1.285       .  A
O1368     Ni1372   1.884       .  S
O1368      C1375   1.280       .  A
O1369     Ni1372   1.864       .  S
O1369      C1374   1.276       .  A
O1370     Ni1372   1.928       .  S
O1370      C1373   1.280       .  A
Ni1371    Ni1372   2.397       .  S
C1374      C1554   1.443       .  S
C1375      C1477   1.441       .  S
C1377      C1378   1.402       .  A
C1377      C1382   1.387       .  A
C1377      H1384   1.084       .  S
C1378      C1379   1.416       .  A
C1379      C1380   1.392       .  A
C1379      C1386   1.522       .  S
C1380      C1381   1.398       .  A
C1380      H1385   1.085       .  S
C1381      C1382   1.407       .  A
C1382      C1383   1.518       .  S
C1383      F1387   1.385       .  S
C1383      F1388   1.377       .  S
C1383      F1389   1.382       .  S
C1386      F1390   1.381   1_554  S
C1386      F1391   1.383       .  S
C1386      F1392   1.384       .  S
C1393      C1394   1.393       .  A
C1393      C1398   1.391       .  A
C1393      H1400   1.084       .  S
C1394      C1395   1.419       .  A
C1395      C1396   1.398       .  A
C1395      C1402   1.517   1_565  S
C1396      C1397   1.399       .  A
C1396      H1401   1.085       .  S
C1397      C1398   1.410       .  A
C1398      C1399   1.496       .  S
C1399      F1403   1.385       .  S
C1399      F1404   1.375       .  S
C1399      F1405   1.383       .  S
C1402      F1406   1.383       .  S
C1402      F1407   1.383       .  S
C1402      F1408   1.384       .  S
C1409      C1410   1.404       .  A
C1409      C1414   1.399       .  A
C1409      H1416   1.084       .  S
C1410      C1411   1.409       .  A
C1411      C1412   1.401       .  A
C1411      C1418   1.517       .  S
C1412      C1413   1.404       .  A
C1412      H1417   1.084       .  S
C1413      C1414   1.410       .  A
C1414      C1415   1.520   1_556  S
C1415      F1419   1.384   1_554  S
C1415      F1420   1.381       .  S
C1415      F1421   1.384       .  S
C1418      F1422   1.383       .  S
C1418      F1423   1.382       .  S
C1418      F1424   1.384   1_545  S
C1425      C1426   1.405       .  A
C1425      C1430   1.389       .  A
C1425      H1432   1.085       .  S
C1426      C1427   1.413       .  A
C1427      C1428   1.398       .  A
C1427      C1434   1.519       .  S
C1428      C1429   1.405       .  A
C1428      H1433   1.083       .  S
C1429      C1430   1.409       .  A
C1430      C1431   1.520       .  S
C1431      F1435   1.380       .  S
C1431      F1436   1.383       .  S
C1431      F1437   1.383       .  S
C1434      F1438   1.383       .  S
C1434      F1439   1.383       .  S
C1434      F1440   1.384       .  S
C1441      C1442   1.402       .  A
C1441      C1446   1.398       .  A
C1441      H1448   1.084       .  S
C1442      C1443   1.410       .  A
C1443      C1444   1.382       .  A
C1443      C1450   1.521       .  S
C1444      C1445   1.400       .  A
C1444      H1449   1.086       .  S
C1445      C1446   1.409       .  A
C1446      C1447   1.512       .  S
C1447      F1451   1.380       .  S
C1447      F1452   1.379       .  S
C1447      F1453   1.383       .  S
C1450      F1454   1.382       .  S
C1450      F1455   1.382       .  S
C1450      F1456   1.385       .  S
C1457      C1458   1.399       .  A
C1457      C1462   1.394       .  A
C1457      H1464   1.080   1_455  S
C1458      C1459   1.423       .  A
C1459      C1460   1.393       .  A
C1459      C1466   1.524       .  S
C1460      C1461   1.400       .  A
C1460      H1465   1.085       .  S
C1461      C1462   1.418       .  A
C1462      C1463   1.521       .  S
C1463      F1467   1.378   1_455  S
C1463      F1468   1.384       .  S
C1463      F1469   1.383       .  S
C1466      F1470   1.381       .  S
C1466      F1471   1.383       .  S
C1466      F1472   1.381       .  S
C1473      C1474   1.409       .  A
C1473      C1478   1.390       .  A
C1473      H1480   1.082   1_545  S
C1474      C1475   1.427       .  A
C1475      C1476   1.387       .  A
C1475      C1482   1.525       .  S
C1476      C1477   1.394       .  A
C1476      H1481   1.085       .  S
C1477      C1478   1.404       .  A
C1478      C1479   1.519       .  S
C1479      F1483   1.382   1_545  S
C1479      F1484   1.383       .  S
C1479      F1485   1.373       .  S
C1482      F1486   1.381   1_655  S
C1482      F1487   1.382       .  S
C1482      F1488   1.386       .  S
C1489      C1490   1.405       .  A
C1489      C1494   1.389       .  A
C1489      H1496   1.083       .  S
C1490      C1491   1.403       .  A
C1491      C1492   1.397       .  A
C1491      C1498   1.510       .  S
C1492      C1493   1.401       .  A
C1492      H1497   1.084       .  S
C1493      C1494   1.412       .  A
C1494      C1495   1.522       .  S
C1495      F1499   1.385       .  S
C1495      F1500   1.381       .  S
C1495      F1501   1.378       .  S
C1498      F1502   1.380       .  S
C1498      F1503   1.381       .  S
C1498      F1504   1.371       .  S
C1505      C1506   1.401       .  A
C1505      C1510   1.390       .  A
C1505      H1512   1.083       .  S
C1506      C1507   1.414       .  A
C1507      C1508   1.394       .  A
C1507      C1514   1.518       .  S
C1508      C1509   1.403       .  A
C1508      H1513   1.085       .  S
C1509      C1510   1.419       .  A
C1510      C1511   1.524       .  S
C1511      F1515   1.385       .  S
C1511      F1516   1.383       .  S
C1511      F1517   1.375       .  S
C1514      F1518   1.381       .  S
C1514      F1519   1.383       .  S
C1514      F1520   1.385       .  S
C1521      C1522   1.395       .  A
C1521      C1526   1.389       .  A
C1521      H1528   1.082       .  S
C1522      C1523   1.417       .  A
C1523      C1524   1.400       .  A
C1523      C1530   1.520       .  S
C1524      C1525   1.409       .  A
C1524      H1529   1.081       .  S
C1525      C1526   1.431       .  A
C1526      C1527   1.520       .  S
C1527      F1531   1.386       .  S
C1527      F1532   1.371       .  S
C1527      F1533   1.378   1_455  S
C1530      F1534   1.383       .  S
C1530      F1535   1.382       .  S
C1530      F1536   1.382   1_554  S
C1537      C1538   1.410       .  A
C1537      C1542   1.399       .  A
C1537      H1544   1.084   1_556  S
C1538      C1539   1.417       .  A
C1539      C1540   1.395       .  A
C1539      C1546   1.517       .  S
C1540      C1541   1.396       .  A
C1540      H1545   1.084       .  S
C1541      C1542   1.410       .  A
C1542      C1543   1.521       .  S
C1543      F1547   1.385       .  S
C1543      F1548   1.376       .  S
C1543      F1549   1.383       .  S
C1546      F1550   1.380       .  S
C1546      F1551   1.384       .  S
C1546      F1552   1.380       .  S
C1553      C1554   1.396       .  A
C1553      C1558   1.377       .  A
C1553      H1560   1.086       .  S
C1554      C1555   1.409       .  A
C1555      C1556   1.394       .  A
C1555      C1562   1.513       .  S
C1556      C1557   1.401       .  A
C1556      H1561   1.084       .  S
C1557      C1558   1.412       .  A
C1558      C1559   1.513   1_655  S
C1559      F1563   1.385       .  S
C1559      F1564   1.382   1_455  S
C1559      F1565   1.380       .  S
C1562      F1566   1.380       .  S
C1562      F1567   1.383       .  S
C1562      F1568   1.381   1_554  S
C1569      C1570   1.409       .  A
C1569      C1574   1.396       .  A
C1569      H1576   1.083       .  S
C1570      C1571   1.417       .  A
C1571      C1572   1.393       .  A
C1571      C1578   1.515       .  S
C1572      C1573   1.401       .  A
C1572      H1577   1.085       .  S
C1573      C1574   1.412       .  A
C1574      C1575   1.519       .  S
C1575      F1579   1.385   1_655  S
C1575      F1580   1.384       .  S
C1575      F1581   1.380       .  S
C1578      F1582   1.383       .  S
C1578      F1583   1.381       .  S
C1578      F1584   1.383       .  S
C1585      C1586   1.405       .  A
C1585      C1590   1.397       .  A
C1585      H1592   1.076       .  S
C1586      C1587   1.414       .  A
C1587      C1588   1.395       .  A
C1587      C1594   1.517       .  S
C1588      C1589   1.403       .  A
C1588      H1593   1.085       .  S
C1589      C1590   1.407       .  A
C1590      C1591   1.515       .  S
C1591      F1595   1.384       .  S
C1591      F1596   1.384       .  S
C1591      F1597   1.382       .  S
C1594      F1598   1.384       .  S
C1594      F1599   1.383       .  S
C1594      F1600   1.384       .  S
C1601      C1602   1.401       .  A
C1601      C1606   1.394       .  A
C1601      H1608   1.083       .  S
C1602      C1603   1.403       .  A
C1603      C1604   1.390       .  A
C1603      C1610   1.500       .  S
C1604      C1605   1.398       .  A
C1604      H1609   1.084       .  S
C1605      C1606   1.406       .  A
C1606      C1607   1.517   1_455  S
C1607      F1611   1.384   1_655  S
C1607      F1612   1.383       .  S
C1607      F1613   1.382       .  S
C1610      F1614   1.379       .  S
C1610      F1615   1.380       .  S
C1610      F1616   1.385       .  S
C1617      C1618   1.391       .  A
C1617      C1622   1.384       .  A
C1617      H1624   1.087   1_655  S
C1618      C1619   1.409       .  A
C1619      C1620   1.406       .  A
C1619      C1626   1.516       .  S
C1620      C1621   1.410       .  A
C1620      H1625   1.084       .  S
C1621      C1622   1.404       .  A
C1622      C1623   1.498       .  S
C1623      F1627   1.381   1_655  S
C1623      F1628   1.376       .  S
C1623      F1629   1.379   1_655  S
C1626      F1630   1.384       .  S
C1626      F1631   1.381       .  S
C1626      F1632   1.385       .  S
C1633      C1634   1.394       .  A
C1633      C1638   1.390       .  A
C1633      H1640   1.084       .  S
C1634      C1635   1.414       .  A
C1635      C1636   1.398       .  A
C1635      C1642   1.519       .  S
C1636      C1637   1.398       .  A
C1636      H1641   1.083       .  S
C1637      C1638   1.410       .  A
C1638      C1639   1.511       .  S
C1639      F1643   1.385       .  S
C1639      F1644   1.381       .  S
C1639      F1645   1.380       .  S
C1642      F1646   1.380   1_655  S
C1642      F1647   1.382       .  S
C1642      F1648   1.385       .  S
C1649      C1650   1.402       .  A
C1649      C1654   1.389       .  A
C1649      H1656   1.081       .  S
C1650      C1651   1.420       .  A
C1651      C1652   1.392       .  A
C1651      C1658   1.517       .  S
C1652      C1653   1.396       .  A
C1652      H1657   1.085       .  S
C1653      C1654   1.418       .  A
C1654      C1655   1.526       .  S
C1655      F1659   1.385       .  S
C1655      F1660   1.383       .  S
C1655      F1661   1.378       .  S
C1658      F1662   1.380       .  S
C1658      F1663   1.383       .  S
C1658      F1664   1.385       .  S
C1665      C1666   1.398       .  A
C1665      C1670   1.386       .  A
C1665      H1672   1.084       .  S
C1666      C1667   1.408       .  A
C1667      C1668   1.405       .  A
C1667      C1674   1.514       .  S
C1668      C1669   1.403       .  A
C1668      H1673   1.081       .  S
C1669      C1670   1.409       .  A
C1670      C1671   1.516       .  S
C1671      F1675   1.385       .  S
C1671      F1676   1.381       .  S
C1671      F1677   1.378       .  S
C1674      F1678   1.383       .  S
C1674      F1679   1.382       .  S
C1674      F1680   1.382       .  S
C1681      C1682   1.389       .  A
C1681      C1686   1.393       .  A
C1681      H1688   1.084       .  S
C1682      C1683   1.409       .  A
C1683      C1684   1.396       .  A
C1683      C1690   1.519       .  S
C1684      C1685   1.402       .  A
C1684      H1689   1.083       .  S
C1685      C1686   1.428       .  A
C1686      C1687   1.523       .  S
C1687      F1691   1.385       .  S
C1687      F1692   1.379       .  S
C1687      F1693   1.380       .  S
C1690      F1694   1.383       .  S
C1690      F1695   1.381       .  S
C1690      F1696   1.379       .  S
C1697      C1698   1.410       .  A
C1697      C1702   1.394       .  A
C1697      H1704   1.084       .  S
C1698      C1699   1.420       .  A
C1699      C1700   1.393       .  A
C1699      C1706   1.521       .  S
C1700      C1701   1.407       .  A
C1700      H1705   1.074       .  S
C1701      C1702   1.411       .  A
C1702      C1703   1.517       .  S
C1703      F1707   1.384       .  S
C1703      F1708   1.384       .  S
C1703      F1709   1.384       .  S
C1706      F1710   1.372       .  S
C1706      F1711   1.383       .  S
C1706      F1712   1.385       .  S
C1713      C1714   1.411       .  A
C1713      C1718   1.394       .  A
C1713      H1720   1.083       .  S
C1714      C1715   1.400       .  A
C1715      C1716   1.392       .  A
C1715      C1722   1.505       .  S
C1716      C1717   1.398       .  A
C1716      H1721   1.083       .  S
C1717      C1718   1.403       .  A
C1718      C1719   1.516       .  S
C1719      F1723   1.384       .  S
C1719      F1724   1.378       .  S
C1719      F1725   1.383       .  S
C1722      F1726   1.383       .  S
C1722      F1727   1.381       .  S
C1722      F1728   1.377       .  S
C1729      C1730   1.403       .  A
C1729      C1734   1.390       .  A
C1729      H1736   1.084       .  S
C1730      C1731   1.410       .  A
C1731      C1732   1.387       .  A
C1731      C1738   1.519       .  S
C1732      C1733   1.402       .  A
C1732      H1737   1.085       .  S
C1733      C1734   1.405       .  A
C1734      C1735   1.517       .  S
C1735      F1739   1.383       .  S
C1735      F1740   1.383       .  S
C1735      F1741   1.382       .  S
C1738      F1742   1.383       .  S
C1738      F1743   1.376       .  S
C1738      F1744   1.385       .  S
C1745      C1746   1.405       .  A
C1745      C1750   1.392       .  A
C1745      H1752   1.083       .  S
C1746      C1747   1.413       .  A
C1747      C1748   1.400       .  A
C1747      C1754   1.520       .  S
C1748      C1749   1.407       .  A
C1748      H1753   1.081       .  S
C1749      C1750   1.415       .  A
C1750      C1751   1.521       .  S
C1751      F1755   1.384       .  S
C1751      F1756   1.376       .  S
C1751      F1757   1.383       .  S
C1754      F1758   1.381       .  S
C1754      F1759   1.383       .  S
C1754      F1760   1.385       .  S
C1761      C1762   1.397       .  A
C1761      C1766   1.384       .  A
C1761      H1768   1.086       .  S
C1762      C1763   1.404       .  A
C1763      C1764   1.390       .  A
C1763      C1770   1.509       .  S
C1764      C1765   1.399       .  A
C1764      H1769   1.084       .  S
C1765      C1766   1.410       .  A
C1766      C1767   1.520       .  S
C1767      F1771   1.384       .  S
C1767      F1772   1.382   1_655  S
C1767      F1773   1.383       .  S
C1770      F1774   1.382       .  S
C1770      F1775   1.378       .  S
C1770      F1776   1.381       .  S
C1777      C1778   1.390       .  A
C1777      C1782   1.389       .  A
C1777      H1784   1.084       .  S
C1778      C1779   1.415       .  A
C1779      C1780   1.400       .  A
C1779      C1786   1.518       .  S
C1780      C1781   1.397       .  A
C1780      H1785   1.083       .  S
C1781      C1782   1.414       .  A
C1782      C1783   1.508       .  S
C1783      F1787   1.385       .  S
C1783      F1788   1.382       .  S
C1783      F1789   1.370       .  S
C1786      F1790   1.384   1_455  S
C1786      F1791   1.381       .  S
C1786      F1792   1.384       .  S
C1793      C1794   1.398       .  A
C1793      C1798   1.388       .  A
C1793      H1800   1.084       .  S
C1794      C1795   1.419       .  A
C1795      C1796   1.394       .  A
C1795      C1802   1.521       .  S
C1796      C1797   1.401       .  A
C1796      H1801   1.085       .  S
C1797      C1798   1.421       .  A
C1798      C1799   1.522       .  S
C1799      F1803   1.385       .  S
C1799      F1804   1.382       .  S
C1799      F1805   1.371       .  S
C1802      F1806   1.382       .  S
C1802      F1807   1.382       .  S
C1802      F1808   1.384       .  S
C1809      C1810   1.400       .  A
C1809      C1814   1.390       .  A
C1809      H1816   1.083       .  S
C1810      C1811   1.414       .  A
C1811      C1812   1.389       .  A
C1811      C1818   1.513       .  S
C1812      C1813   1.394       .  A
C1812      H1817   1.086       .  S
C1813      C1814   1.416       .  A
C1814      C1815   1.520       .  S
C1815      F1819   1.385       .  S
C1815      F1820   1.383       .  S
C1815      F1821   1.375       .  S
C1818      F1822   1.383       .  S
C1818      F1823   1.381       .  S
C1818      F1824   1.382       .  S
C1825      C1826   1.403       .  A
C1825      C1830   1.389       .  A
C1825      H1832   1.084       .  S
C1826      C1827   1.413       .  A
C1827      C1828   1.396       .  A
C1827      C1834   1.516       .  S
C1828      C1829   1.405       .  A
C1828      H1833   1.083       .  S
C1829      C1830   1.422       .  A
C1830      C1831   1.531       .  S
C1831      F1835   1.385       .  S
C1831      F1836   1.383       .  S
C1831      F1837   1.382       .  S
C1834      F1838   1.383       .  S
C1834      F1839   1.379       .  S
C1834      F1840   1.383       .  S
C1841      C1842   1.408       .  A
C1841      C1846   1.397       .  A
C1841      H1848   1.084       .  S
C1842      C1843   1.417       .  A
C1843      C1844   1.389       .  A
C1843      C1850   1.522       .  S
C1844      C1845   1.399       .  A
C1844      H1849   1.084       .  S
C1845      C1846   1.403       .  A
C1846      C1847   1.509       .  S
C1847      F1851   1.384       .  S
C1847      F1852   1.375       .  S
C1847      F1853   1.380       .  S
C1850      F1854   1.383       .  S
C1850      F1855   1.380       .  S
C1850      F1856   1.386       .  S
C1857      C1858   1.398       .  A
C1857      C1862   1.395       .  A
C1857      H1864   1.080       .  S
C1858      C1859   1.410       .  A
C1859      C1860   1.399       .  A
C1859      C1866   1.518       .  S
C1860      C1861   1.404       .  A
C1860      H1865   1.084       .  S
C1861      C1862   1.412       .  A
C1862      C1863   1.511       .  S
C1863      F1867   1.385       .  S
C1863      F1868   1.377       .  S
C1863      F1869   1.381       .  S
C1866      F1870   1.376       .  S
C1866      F1871   1.383       .  S
C1866      F1872   1.384       .  S
C1873      C1874   1.403       .  A
C1873      C1878   1.399       .  A
C1873      H1880   1.085       .  S
C1874      C1875   1.419       .  A
C1875      C1876   1.397       .  A
C1875      C1882   1.520       .  S
C1876      C1877   1.402       .  A
C1876      H1881   1.084       .  S
C1877      C1878   1.418       .  A
C1878      C1879   1.519       .  S
C1879      F1883   1.381       .  S
C1879      F1884   1.379       .  S
C1879      F1885   1.384       .  S
C1882      F1886   1.383       .  S
C1882      F1887   1.380       .  S
C1882      F1888   1.384       .  S
C1889      C1890   1.398       .  A
C1889      C1894   1.388       .  A
C1889      H1896   1.084       .  S
C1890      C1891   1.408       .  A
C1891      C1892   1.399       .  A
C1891      C1898   1.519       .  S
C1892      C1893   1.407       .  A
C1892      H1897   1.084       .  S
C1893      C1894   1.409       .  A
C1894      C1895   1.513       .  S
C1895      F1899   1.381       .  S
C1895      F1900   1.382       .  S
C1895      F1901   1.376       .  S
C1898      F1902   1.383       .  S
C1898      F1903   1.380       .  S
C1898      F1904   1.383       .  S
C1905      C1906   1.398       .  A
C1905      C1910   1.390       .  A
C1905      H1912   1.083       .  S
C1906      C1907   1.417       .  A
C1907      C1908   1.393       .  A
C1907      C1914   1.522       .  S
C1908      C1909   1.400       .  A
C1908      H1913   1.085       .  S
C1909      C1910   1.417       .  A
C1910      C1911   1.520       .  S
C1911      F1915   1.379       .  S
C1911      F1916   1.376       .  S
C1911      F1917   1.383       .  S
C1914      F1918   1.383   1_455  S
C1914      F1919   1.383       .  S
C1914      F1920   1.383       .  S
C1921      C1922   1.402       .  A
C1921      C1926   1.388       .  A
C1921      H1928   1.084       .  S
C1922      C1923   1.428       .  A
C1923      C1924   1.391       .  A
C1923      C1930   1.526       .  S
C1924      C1925   1.394       .  A
C1924      H1929   1.084       .  S
C1925      C1926   1.409       .  A
C1926      C1927   1.523       .  S
C1927      F1931   1.385       .  S
C1927      F1932   1.374       .  S
C1927      F1933   1.383       .  S
C1930      F1934   1.381       .  S
C1930      F1935   1.383   1_655  S
C1930      F1936   1.386       .  S
C1937      C1938   1.393       .  A
C1937      C1942   1.388       .  A
C1937      H1944   1.084       .  S
C1938      C1939   1.401       .  A
C1939      C1940   1.398       .  A
C1939      C1946   1.514       .  S
C1940      C1941   1.402       .  A
C1940      H1945   1.083       .  S
C1941      C1942   1.410       .  A
C1942      C1943   1.513       .  S
C1943      F1947   1.385       .  S
C1943      F1948   1.382       .  S
C1943      F1949   1.375       .  S
C1946      F1950   1.380   1_455  S
C1946      F1951   1.382       .  S
C1946      F1952   1.369       .  S
C1953      C1954   1.401       .  A
C1953      C1958   1.380       .  A
C1953      H1960   1.082       .  S
C1954      C1955   1.406       .  A
C1955      C1956   1.397       .  A
C1955      C1962   1.511       .  S
C1956      C1957   1.404       .  A
C1956      H1961   1.084       .  S
C1957      C1958   1.413       .  A
C1958      C1959   1.517       .  S
C1959      F1963   1.385       .  S
C1959      F1964   1.380       .  S
C1959      F1965   1.380       .  S
C1962      F1966   1.379       .  S
C1962      F1967   1.383       .  S
C1962      F1968   1.382       .  S
C1969      C1970   1.399       .  A
C1969      C1974   1.381       .  A
C1969      H1976   1.085       .  S
C1970      C1971   1.409       .  A
C1971      C1972   1.390       .  A
C1971      C1978   1.515       .  S
C1972      C1973   1.399       .  A
C1972      H1977   1.083       .  S
C1973      C1974   1.406       .  A
C1974      C1975   1.516       .  S
C1975      F1979   1.385       .  S
C1975      F1980   1.383       .  S
C1975      F1981   1.376       .  S
C1978      F1982   1.383       .  S
C1978      F1983   1.377       .  S
C1978      F1984   1.384       .  S
C1985      C1986   1.400       .  A
C1985      C1990   1.392       .  A
C1985      H1992   1.084       .  S
C1986      C1987   1.417       .  A
C1987      C1988   1.387       .  A
C1987      C1994   1.524       .  S
C1988      C1989   1.395       .  A
C1988      H1993   1.084       .  S
C1989      C1990   1.413       .  A
C1990      C1991   1.521       .  S
C1991      F1995   1.385       .  S
C1991      F1996   1.377       .  S
C1991      F1997   1.382       .  S
C1994      F1998   1.381       .  S
C1994      F1999   1.384       .  S
C1994      F2000   1.386       .  S
C2001      C2002   1.390       .  A
C2001      C2006   1.390       .  A
C2001      H2008   1.086       .  S
C2002      C2003   1.407       .  A
C2003      C2004   1.401       .  A
C2003      C2010   1.514       .  S
C2004      C2005   1.403       .  A
C2004      H2009   1.083       .  S
C2005      C2006   1.407       .  A
C2006      C2007   1.496       .  S
C2007      F2011   1.379       .  S
C2007      F2012   1.379       .  S
C2007      F2013   1.378       .  S
C2010      F2014   1.382       .  S
C2010      F2015   1.383       .  S
C2010      F2016   1.381       .  S
C2017      C2018   1.403       .  A
C2017      C2022   1.397       .  A
C2017      H2024   1.081       .  S
C2018      C2019   1.417       .  A
C2019      C2020   1.398       .  A
C2019      C2026   1.513       .  S
C2020      C2021   1.401       .  A
C2020      H2025   1.085       .  S
C2021      C2022   1.424       .  A
C2022      C2023   1.522       .  S
C2023      F2027   1.385       .  S
C2023      F2028   1.383       .  S
C2023      F2029   1.382       .  S
C2026      F2030   1.383       .  S
C2026      F2031   1.382       .  S
C2026      F2032   1.380       .  S
C2033      C2034   1.408       .  A
C2033      C2038   1.399       .  A
C2033      H2040   1.079       .  S
C2034      C2035   1.417       .  A
C2035      C2036   1.394       .  A
C2035      C2042   1.518       .  S
C2036      C2037   1.399       .  A
C2036      H2041   1.085       .  S
C2037      C2038   1.409       .  A
C2038      C2039   1.519       .  S
C2039      F2043   1.384       .  S
C2039      F2044   1.382       .  S
C2039      F2045   1.382       .  S
C2042      F2046   1.383       .  S
C2042      F2047   1.384       .  S
C2042      F2048   1.384       .  S
C2049      C2050   1.391       .  A
C2049      C2054   1.389       .  A
C2049      H2056   1.084       .  S
C2050      C2051   1.411       .  A
C2051      C2052   1.398       .  A
C2051      C2058   1.518       .  S
C2052      C2053   1.398       .  A
C2052      H2057   1.082       .  S
C2053      C2054   1.415       .  A
C2054      C2055   1.514       .  S
C2055      F2059   1.385       .  S
C2055      F2060   1.375       .  S
C2055      F2061   1.382       .  S
C2058      F2062   1.381   1_545  S
C2058      F2063   1.383       .  S
C2058      F2064   1.384       .  S
C2065      C2066   1.395       .  A
C2065      C2070   1.388       .  A
C2065      H2072   1.085       .  S
C2066      C2067   1.410       .  A
C2067      C2068   1.393       .  A
C2067      C2074   1.516   1_565  S
C2068      C2069   1.401       .  A
C2068      H2073   1.084       .  S
C2069      C2070   1.419       .  A
C2070      C2071   1.510       .  S
C2071      F2075   1.385       .  S
C2071      F2076   1.369       .  S
C2071      F2077   1.383       .  S
C2074      F2078   1.384       .  S
C2074      F2079   1.383       .  S
C2074      F2080   1.381       .  S
C2081      C2082   1.398       .  A
C2081      C2086   1.390       .  A
C2081      H2088   1.084       .  S
C2082      C2083   1.406       .  A
C2083      C2084   1.392       .  A
C2083      C2090   1.505       .  S
C2084      C2085   1.398       .  A
C2084      H2089   1.084       .  S
C2085      C2086   1.409       .  A
C2086      C2087   1.518       .  S
C2087      F2091   1.385       .  S
C2087      F2092   1.378       .  S
C2087      F2093   1.383       .  S
C2090      F2094   1.378       .  S
C2090      F2095   1.377       .  S
C2090      F2096   1.384       .  S
C2097      C2098   1.405       .  A
C2097      C2102   1.394       .  A
C2097      H2104   1.084       .  S
C2098      C2099   1.415       .  A
C2099      C2100   1.398       .  A
C2099      C2106   1.521       .  S
C2100      C2101   1.406       .  A
C2100      H2105   1.083       .  S
C2101      C2102   1.420       .  A
C2102      C2103   1.525       .  S
C2103      F2107   1.384       .  S
C2103      F2108   1.382       .  S
C2103      F2109   1.383       .  S
C2106      F2110   1.381       .  S
C2106      F2111   1.383       .  S
C2106      F2112   1.385       .  S
C2113      C2114   1.402       .  A
C2113      C2118   1.400       .  A
C2113      H2120   1.085       .  S
C2114      C2115   1.412       .  A
C2115      C2116   1.393       .  A
C2115      C2122   1.501       .  S
C2116      C2117   1.395       .  A
C2116      H2121   1.084       .  S
C2117      C2118   1.415       .  A
C2118      C2119   1.517       .  S
C2119      F2123   1.381       .  S
C2119      F2124   1.382       .  S
C2119      F2125   1.381       .  S
C2122      F2126   1.381       .  S
C2122      F2127   1.375       .  S
C2122      F2128   1.385       .  S
C2129      C2130   1.409       .  A
C2129      C2134   1.400       .  A
C2129      H2136   1.083       .  S
C2130      C2131   1.418       .  A
C2131      C2132   1.389       .  A
C2131      C2138   1.523       .  S
C2132      C2133   1.402       .  A
C2132      H2137   1.082       .  S
C2133      C2134   1.410       .  A
C2134      C2135   1.516       .  S
C2135      F2139   1.382       .  S
C2135      F2140   1.380       .  S
C2135      F2141   1.383       .  S
C2138      F2142   1.379       .  S
C2138      F2143   1.382   1_565  S
C2138      F2144   1.383       .  S
C2145      C2146   1.399       .  A
C2145      C2150   1.393       .  A
C2145      H2152   1.084       .  S
C2146      C2147   1.408       .  A
C2147      C2148   1.386       .  A
C2147      C2154   1.518       .  S
C2148      C2149   1.396       .  A
C2148      H2153   1.084       .  S
C2149      C2150   1.406       .  A
C2150      C2151   1.511       .  S
C2151      F2155   1.384       .  S
C2151      F2156   1.383       .  S
C2151      F2157   1.380       .  S
C2154      F2158   1.383       .  S
C2154      F2159   1.379       .  S
C2154      F2160   1.385       .  S
C2161      C2162   1.403       .  A
C2161      C2166   1.393       .  A
C2161      H2168   1.084       .  S
C2162      C2163   1.418       .  A
C2163      C2164   1.399       .  A
C2163      C2170   1.519       .  S
C2164      C2165   1.400       .  A
C2164      H2169   1.084       .  S
C2165      C2166   1.415       .  A
C2166      C2167   1.521       .  S
C2167      F2171   1.385       .  S
C2167      F2172   1.383       .  S
C2167      F2173   1.379       .  S
C2170      F2174   1.383       .  S
C2170      F2175   1.380       .  S
C2170      F2176   1.383       .  S
C2177      C2178   1.405       .  A
C2177      C2182   1.402       .  A
C2177      H2184   1.083       .  S
C2178      C2179   1.417       .  A
C2179      C2180   1.395       .  A
C2179      C2186   1.520       .  S
C2180      C2181   1.397       .  A
C2180      H2185   1.082       .  S
C2181      C2182   1.414       .  A
C2182      C2183   1.519       .  S
C2183      F2187   1.384       .  S
C2183      F2188   1.383       .  S
C2183      F2189   1.379       .  S
C2186      F2190   1.383       .  S
C2186      F2191   1.382       .  S
C2186      F2192   1.385       .  S
C2193      C2194   1.398       .  A
C2193      C2198   1.398       .  A
C2193      H2200   1.083       .  S
C2194      C2195   1.418       .  A
C2195      C2196   1.396       .  A
C2195      C2202   1.519   1_554  S
C2196      C2197   1.398       .  A
C2196      H2201   1.085       .  S
C2197      C2198   1.423       .  A
C2198      C2199   1.524       .  S
C2199      F2203   1.385       .  S
C2199      F2204   1.379       .  S
C2199      F2205   1.372       .  S
C2202      F2206   1.383       .  S
C2202      F2207   1.383       .  S
C2202      F2208   1.384       .  S
C2209      C2210   1.399       .  A
C2209      C2214   1.398       .  A
C2209      H2216   1.085       .  S
C2210      C2211   1.409       .  A
C2211      C2212   1.395       .  A
C2211      C2218   1.517       .  S
C2212      C2213   1.405       .  A
C2212      H2217   1.085       .  S
C2213      C2214   1.426       .  A
C2214      C2215   1.521       .  S
C2215      F2219   1.384       .  S
C2215      F2220   1.373       .  S
C2215      F2221   1.381       .  S
C2218      F2222   1.381       .  S
C2218      F2223   1.383       .  S
C2218      F2224   1.378       .  S
C2225      C2226   1.402       .  A
C2225      C2230   1.394       .  A
C2225      H2232   1.083       .  S
C2226      C2227   1.423       .  A
C2227      C2228   1.395       .  A
C2227      C2234   1.517   1_554  S
C2228      C2229   1.395       .  A
C2228      H2233   1.083       .  S
C2229      C2230   1.417       .  A
C2230      C2231   1.521       .  S
C2231      F2235   1.385       .  S
C2231      F2236   1.383       .  S
C2231      F2237   1.377       .  S
C2234      F2238   1.377       .  S
C2234      F2239   1.379       .  S
C2234      F2240   1.380       .  S
C2241      C2242   1.406       .  A
C2241      C2246   1.390       .  A
C2241      H2248   1.084       .  S
C2242      C2243   1.411       .  A
C2243      C2244   1.398       .  A
C2243      C2250   1.516       .  S
C2244      C2245   1.401       .  A
C2244      H2249   1.083       .  S
C2245      C2246   1.411       .  A
C2246      C2247   1.522       .  S
C2247      F2251   1.385       .  S
C2247      F2252   1.383       .  S
C2247      F2253   1.383       .  S
C2250      F2254   1.383       .  S
C2250      F2255   1.380       .  S
C2250      F2256   1.380       .  S
C2257      C2258   1.397       .  A
C2257      C2262   1.395       .  A
C2257      H2264   1.084       .  S
C2258      C2259   1.404       .  A
C2259      C2260   1.397       .  A
C2259      C2266   1.526       .  S
C2260      C2261   1.404       .  A
C2260      H2265   1.072       .  S
C2261      C2262   1.409       .  A
C2262      C2263   1.511       .  S
C2263      F2267   1.385       .  S
C2263      F2268   1.383       .  S
C2263      F2269   1.377       .  S
C2266      F2270   1.381       .  S
C2266      F2271   1.380       .  S
C2266      F2272   1.372       .  S
C2273      C2274   1.404       .  A
C2273      C2278   1.397       .  A
C2273      H2280   1.085       .  S
C2274      C2275   1.413       .  A
C2275      C2276   1.391       .  A
C2275      C2282   1.511       .  S
C2276      C2277   1.399       .  A
C2276      H2281   1.081       .  S
C2277      C2278   1.415       .  A
C2278      C2279   1.518       .  S
C2279      F2283   1.384       .  S
C2279      F2284   1.383       .  S
C2279      F2285   1.382       .  S
C2282      F2286   1.378       .  S
C2282      F2287   1.380       .  S
C2282      F2288   1.383       .  S
C2289      C2290   1.397       .  A
C2289      C2294   1.388       .  A
C2289      H2296   1.084       .  S
C2290      C2291   1.405       .  A
C2291      C2292   1.394       .  A
C2291      C2298   1.514       .  S
C2292      C2293   1.400       .  A
C2292      H2297   1.084       .  S
C2293      C2294   1.415       .  A
C2294      C2295   1.520       .  S
C2295      F2299   1.385       .  S
C2295      F2300   1.374       .  S
C2295      F2301   1.383       .  S
C2298      F2302   1.382       .  S
C2298      F2303   1.383       .  S
C2298      F2304   1.380       .  S
C2305      C2306   1.398       .  A
C2305      C2310   1.390       .  A
C2305      H2312   1.084       .  S
C2306      C2307   1.412       .  A
C2307      C2308   1.386       .  A
C2307      C2314   1.525       .  S
C2308      C2309   1.401       .  A
C2308      H2313   1.084       .  S
C2309      C2310   1.411       .  A
C2310      C2311   1.516       .  S
C2311      F2315   1.382       .  S
C2311      F2316   1.383       .  S
C2311      F2317   1.376       .  S
C2314      F2318   1.383       .  S
C2314      F2319   1.381       .  S
C2314      F2320   1.385       .  S
C2321      C2322   1.403       .  A
C2321      C2326   1.389       .  A
C2321      H2328   1.084       .  S
C2322      C2323   1.408       .  A
C2323      C2324   1.393       .  A
C2323      C2330   1.519       .  S
C2324      C2325   1.401       .  A
C2324      H2329   1.084       .  S
C2325      C2326   1.403       .  A
C2326      C2327   1.516       .  S
C2327      F2331   1.384       .  S
C2327      F2332   1.379       .  S
C2327      F2333   1.383       .  S
C2330      F2334   1.383       .  S
C2330      F2335   1.381       .  S
C2330      F2336   1.385       .  S
C2337      C2338   1.406       .  A
C2337      C2342   1.399       .  A
C2337      H2344   1.084       .  S
C2338      C2339   1.410       .  A
C2339      C2340   1.392       .  A
C2339      C2346   1.511   1_556  S
C2340      C2341   1.394       .  A
C2340      H2345   1.084       .  S
C2341      C2342   1.412       .  A
C2342      C2343   1.518       .  S
C2343      F2347   1.384       .  S
C2343      F2348   1.378       .  S
C2343      F2349   1.383       .  S
C2346      F2350   1.381       .  S
C2346      F2351   1.383       .  S
C2346      F2352   1.381       .  S
C2353      C2354   1.399       .  A
C2353      C2358   1.392       .  A
C2353      H2360   1.083       .  S
C2354      C2355   1.416       .  A
C2355      C2356   1.389       .  A
C2355      C2362   1.524       .  S
C2356      C2357   1.399       .  A
C2356      H2361   1.084       .  S
C2357      C2358   1.404       .  A
C2358      C2359   1.514       .  S
C2359      F2363   1.381       .  S
C2359      F2364   1.382       .  S
C2359      F2365   1.383   1_556  S
C2362      F2366   1.380       .  S
C2362      F2367   1.383       .  S
C2362      F2368   1.385       .  S
C2369      C2370   1.397       .  A
C2369      C2374   1.392       .  A
C2369      H2376   1.086       .  S
C2370      C2371   1.411       .  A
C2371      C2372   1.398       .  A
C2371      C2378   1.518       .  S
C2372      C2373   1.403       .  A
C2372      H2377   1.084       .  S
C2373      C2374   1.408       .  A
C2374      C2375   1.511       .  S
C2375      F2379   1.382       .  S
C2375      F2380   1.381       .  S
C2375      F2381   1.381       .  S
C2378      F2382   1.383       .  S
C2378      F2383   1.382       .  S
C2378      F2384   1.385       .  S
C2385      C2386   1.408       .  A
C2385      C2390   1.395       .  A
C2385      H2392   1.081       .  S
C2386      C2387   1.405       .  A
C2387      C2388   1.382       .  A
C2387      C2394   1.511       .  S
C2388      C2389   1.402       .  A
C2388      H2393   1.085       .  S
C2389      C2390   1.411       .  A
C2390      C2391   1.517       .  S
C2391      F2395   1.384       .  S
C2391      F2396   1.381       .  S
C2391      F2397   1.383       .  S
C2394      F2398   1.385       .  S
C2394      F2399   1.384       .  S
C2394      F2400   1.375       .  S
C2401      C2402   1.403       .  A
C2401      C2406   1.398       .  A
C2401      H2408   1.084       .  S
C2402      C2403   1.405       .  A
C2403      C2404   1.387       .  A
C2403      C2410   1.516       .  S
C2404      C2405   1.401       .  A
C2404      H2409   1.085       .  S
C2405      C2406   1.407       .  A
C2406      C2407   1.516       .  S
C2407      F2411   1.385       .  S
C2407      F2412   1.382       .  S
C2407      F2413   1.383       .  S
C2410      F2414   1.380       .  S
C2410      F2415   1.382       .  S
C2410      F2416   1.384       .  S
C2417      C2418   1.398       .  A
C2417      C2422   1.393       .  A
C2417      H2424   1.084       .  S
C2418      C2419   1.411       .  A
C2419      C2420   1.389       .  A
C2419      C2426   1.511       .  S
C2420      C2421   1.396       .  A
C2420      H2425   1.084       .  S
C2421      C2422   1.401       .  A
C2422      C2423   1.510       .  S
C2423      F2427   1.377       .  S
C2423      F2428   1.383       .  S
C2423      F2429   1.381       .  S
C2426      F2430   1.382       .  S
C2426      F2431   1.380       .  S
C2426      F2432   1.385       .  S
C2433      C2434   1.396       .  A
C2433      C2438   1.396       .  A
C2433      H2440   1.084       .  S
C2434      C2435   1.410       .  A
C2435      C2436   1.395       .  A
C2435      C2442   1.518       .  S
C2436      C2437   1.398       .  A
C2436      H2441   1.084       .  S
C2437      C2438   1.409       .  A
C2438      C2439   1.515       .  S
C2439      F2443   1.381       .  S
C2439      F2444   1.381       .  S
C2439      F2445   1.382   1_556  S
C2442      F2446   1.380       .  S
C2442      F2447   1.383       .  S
C2442      F2448   1.384       .  S
C2449      C2450   1.403       .  A
C2449      C2454   1.391       .  A
C2449      H2456   1.083       .  S
C2450      C2451   1.418       .  A
C2451      C2452   1.393       .  A
C2451      C2458   1.523       .  S
C2452      C2453   1.402       .  A
C2452      H2457   1.084       .  S
C2453      C2454   1.415       .  A
C2454      C2455   1.523       .  S
C2455      F2459   1.384       .  S
C2455      F2460   1.383       .  S
C2455      F2461   1.375       .  S
C2458      F2462   1.383   1_554  S
C2458      F2463   1.382       .  S
C2458      F2464   1.386       .  S
C2465      C2466   1.402       .  A
C2465      C2470   1.396       .  A
C2465      H2472   1.083       .  S
C2466      C2467   1.413       .  A
C2467      C2468   1.395       .  A
C2467      C2474   1.517       .  S
C2468      C2469   1.399       .  A
C2468      H2473   1.085       .  S
C2469      C2470   1.416       .  A
C2470      C2471   1.522       .  S
C2471      F2475   1.385       .  S
C2471      F2476   1.383       .  S
C2471      F2477   1.381       .  S
C2474      F2478   1.384       .  S
C2474      F2479   1.382       .  S
C2474      F2480   1.380       .  S
C2481      C2482   1.391       .  A
C2481      C2486   1.391       .  A
C2481      H2488   1.086       .  S
C2482      C2483   1.405       .  A
C2483      C2484   1.398       .  A
C2483      C2490   1.516       .  S
C2484      C2485   1.402       .  A
C2484      H2489   1.082       .  S
C2485      C2486   1.421       .  A
C2486      C2487   1.519       .  S
C2487      F2491   1.384       .  S
C2487      F2492   1.373       .  S
C2487      F2493   1.384       .  S
C2490      F2494   1.383       .  S
C2490      F2495   1.378       .  S
C2490      F2496   1.374       .  S
C2497      C2498   1.399       .  A
C2497      C2502   1.399       .  A
C2497      H2504   1.084       .  S
C2498      C2499   1.406       .  A
C2499      C2500   1.391       .  A
C2499      C2506   1.513       .  S
C2500      C2501   1.403       .  A
C2500      H2505   1.086       .  S
C2501      C2502   1.430       .  A
C2502      C2503   1.524       .  S
C2503      F2507   1.384       .  S
C2503      F2508   1.373       .  S
C2503      F2509   1.384       .  S
C2506      F2510   1.382       .  S
C2506      F2511   1.382       .  S
C2506      F2512   1.373       .  S
C2513      C2514   1.399       .  A
C2513      C2518   1.397       .  A
C2513      H2520   1.083       .  S
C2514      C2515   1.414       .  A
C2515      C2516   1.389       .  A
C2515      C2522   1.514       .  S
C2516      C2517   1.395       .  A
C2516      H2521   1.086       .  S
C2517      C2518   1.419       .  A
C2518      C2519   1.522       .  S
C2519      F2523   1.385       .  S
C2519      F2524   1.380       .  S
C2519      F2525   1.383       .  S
C2522      F2526   1.382       .  S
C2522      F2527   1.383       .  S
C2522      F2528   1.384       .  S
C2529      C2530   1.398       .  A
C2529      C2534   1.393       .  A
C2529      H2536   1.084       .  S
C2530      C2531   1.414       .  A
C2531      C2532   1.401       .  A
C2531      C2538   1.519       .  S
C2532      C2533   1.408       .  A
C2532      H2537   1.084       .  S
C2533      C2534   1.421       .  A
C2534      C2535   1.515       .  S
C2535      F2539   1.385       .  S
C2535      F2540   1.383       .  S
C2535      F2541   1.375       .  S
C2538      F2542   1.382       .  S
C2538      F2543   1.383       .  S
C2538      F2544   1.384       .  S
C2545      C2546   1.396       .  A
C2545      C2550   1.392       .  A
C2545      H2552   1.085       .  S
C2546      C2547   1.414       .  A
C2547      C2548   1.396       .  A
C2547      C2554   1.518       .  S
C2548      C2549   1.399       .  A
C2548      H2553   1.083       .  S
C2549      C2550   1.419       .  A
C2550      C2551   1.523   1_565  S
C2551      F2555   1.384       .  S
C2551      F2556   1.383       .  S
C2551      F2557   1.383       .  S
C2554      F2558   1.379       .  S
C2554      F2559   1.380       .  S
C2554      F2560   1.385       .  S
C2561      C2562   1.397       .  A
C2561      C2566   1.391       .  A
C2561      H2568   1.084       .  S
C2562      C2563   1.412       .  A
C2563      C2564   1.391       .  A
C2563      C2570   1.521       .  S
C2564      C2565   1.401       .  A
C2564      H2569   1.084       .  S
C2565      C2566   1.403       .  A
C2566      C2567   1.504       .  S
C2567      F2571   1.384       .  S
C2567      F2572   1.383       .  S
C2567      F2573   1.380       .  S
C2570      F2574   1.383   1_545  S
C2570      F2575   1.381   1_545  S
C2570      F2576   1.385       .  S
C2577      C2578   1.410       .  A
C2577      C2582   1.397       .  A
C2577      H2584   1.080       .  S
C2578      C2579   1.412       .  A
C2579      C2580   1.389       .  A
C2579      C2586   1.512       .  S
C2580      C2581   1.401       .  A
C2580      H2585   1.085       .  S
C2581      C2582   1.416       .  A
C2582      C2583   1.522       .  S
C2583      F2587   1.378       .  S
C2583      F2588   1.384       .  S
C2583      F2589   1.385       .  S
C2586      F2590   1.383       .  S
C2586      F2591   1.383       .  S
C2586      F2592   1.380       .  S
C2593      C2594   1.397       .  A
C2593      C2598   1.394       .  A
C2593      H2600   1.085       .  S
C2594      C2595   1.421       .  A
C2595      C2596   1.399       .  A
C2595      C2602   1.514       .  S
C2596      C2597   1.400       .  A
C2596      H2601   1.082       .  S
C2597      C2598   1.419       .  A
C2598      C2599   1.508       .  S
C2599      F2603   1.383       .  S
C2599      F2604   1.372       .  S
C2599      F2605   1.382       .  S
C2602      F2606   1.383       .  S
C2602      F2607   1.370       .  S
C2602      F2608   1.385       .  S
C2609      C2610   1.397       .  A
C2609      C2614   1.387       .  A
C2609      H2616   1.085       .  S
C2610      C2611   1.408       .  A
C2611      C2612   1.398       .  A
C2611      C2618   1.516       .  S
C2612      C2613   1.401       .  A
C2612      H2617   1.084       .  S
C2613      C2614   1.407       .  A
C2614      C2615   1.510       .  S
C2615      F2619   1.385       .  S
C2615      F2620   1.377       .  S
C2615      F2621   1.382       .  S
C2618      F2622   1.382       .  S
C2618      F2623   1.383       .  S
C2618      F2624   1.385       .  S
C2625      C2626   1.397       .  A
C2625      C2630   1.397       .  A
C2625      H2632   1.084       .  S
C2626      C2627   1.413       .  A
C2627      C2628   1.390       .  A
C2627      C2634   1.526       .  S
C2628      C2629   1.407       .  A
C2628      H2633   1.083       .  S
C2629      C2630   1.418       .  A
C2630      C2631   1.522       .  S
C2631      F2635   1.375       .  S
C2631      F2636   1.374       .  S
C2631      F2637   1.383       .  S
C2634      F2638   1.380       .  S
C2634      F2639   1.384       .  S
C2634      F2640   1.385       .  S
C2641      C2642   1.395       .  A
C2641      C2646   1.389       .  A
C2641      H2648   1.083       .  S
C2642      C2643   1.406       .  A
C2643      C2644   1.394       .  A
C2643      C2650   1.514       .  S
C2644      C2645   1.398       .  A
C2644      H2649   1.082       .  S
C2645      C2646   1.417       .  A
C2646      C2647   1.522       .  S
C2647      F2651   1.385       .  S
C2647      F2652   1.382       .  S
C2647      F2653   1.376       .  S
C2650      F2654   1.383       .  S
C2650      F2655   1.382       .  S
C2650      F2656   1.380       .  S
C2657      C2658   1.399       .  A
C2657      C2662   1.384       .  A
C2657      H2664   1.080       .  S
C2658      C2659   1.417       .  A
C2659      C2660   1.402       .  A
C2659      C2666   1.520       .  S
C2660      C2661   1.405       .  A
C2660      H2665   1.083       .  S
C2661      C2662   1.410       .  A
C2662      C2663   1.519       .  S
C2663      F2667   1.380       .  S
C2663      F2668   1.382       .  S
C2663      F2669   1.381       .  S
C2666      F2670   1.381       .  S
C2666      F2671   1.383       .  S
C2666      F2672   1.385       .  S
C2673      C2674   1.399       .  A
C2673      C2678   1.392       .  A
C2673      H2680   1.076       .  S
C2674      C2675   1.403       .  A
C2675      C2676   1.387       .  A
C2675      C2682   1.516       .  S
C2676      C2677   1.401       .  A
C2676      H2681   1.079       .  S
C2677      C2678   1.402       .  A
C2678      C2679   1.515       .  S
C2679      F2683   1.383       .  S
C2679      F2684   1.381       .  S
C2679      F2685   1.382       .  S
C2682      F2686   1.383       .  S
C2682      F2687   1.378       .  S
C2682      F2688   1.384       .  S
C2689      C2690   1.392       .  A
C2689      C2694   1.387       .  A
C2689      H2696   1.084       .  S
C2690      C2691   1.406       .  A
C2691      C2692   1.400       .  A
C2691      C2698   1.518       .  S
C2692      C2693   1.401       .  A
C2692      H2697   1.076       .  S
C2693      C2694   1.411       .  A
C2694      C2695   1.508       .  S
C2695      F2699   1.384       .  S
C2695      F2700   1.380       .  S
C2695      F2701   1.381       .  S
C2698      F2702   1.383       .  S
C2698      F2703   1.381       .  S
C2698      F2704   1.375       .  S
C2705      C2706   1.399       .  A
C2705      C2710   1.393       .  A
C2705      H2712   1.083       .  S
C2706      C2707   1.416       .  A
C2707      C2708   1.388       .  A
C2707      C2714   1.518       .  S
C2708      C2709   1.399       .  A
C2708      H2713   1.085       .  S
C2709      C2710   1.416       .  A
C2710      C2711   1.516       .  S
C2711      F2715   1.382       .  S
C2711      F2716   1.383       .  S
C2711      F2717   1.376       .  S
C2714      F2718   1.381       .  S
C2714      F2719   1.383       .  S
C2714      F2720   1.385       .  S
C2721      C2722   1.401       .  A
C2721      C2726   1.401       .  A
C2721      H2728   1.084       .  S
C2722      C2723   1.408       .  A
C2723      C2724   1.382       .  A
C2723      C2730   1.492       .  S
C2724      C2725   1.388       .  A
C2724      H2729   1.085       .  S
C2725      C2726   1.412       .  A
C2726      C2727   1.518       .  S
C2727      F2731   1.384       .  S
C2727      F2732   1.384       .  S
C2727      F2733   1.381       .  S
C2730      F2734   1.382       .  S
C2730      F2735   1.374       .  S
C2730      F2736   1.385   1_565  S
C2737      C2738   1.391       .  A
C2737      C2742   1.391       .  A
C2737      H2744   1.083       .  S
C2738      C2739   1.407       .  A
C2739      C2740   1.390       .  A
C2739      C2746   1.522       .  S
C2740      C2741   1.411       .  A
C2740      H2745   1.082       .  S
C2741      C2742   1.425       .  A
C2742      C2743   1.513   1_565  S
C2743      F2747   1.379       .  S
C2743      F2748   1.377       .  S
C2743      F2749   1.376       .  S
C2746      F2750   1.376       .  S
C2746      F2751   1.384       .  S
C2746      F2752   1.385       .  S
C2753      C2754   1.393       .  A
C2753      C2758   1.395       .  A
C2753      H2760   1.083       .  S
C2754      C2755   1.415       .  A
C2755      C2756   1.389       .  A
C2755      C2762   1.509   1_655  S
C2756      C2757   1.390       .  A
C2756      H2761   1.086       .  S
C2757      C2758   1.425       .  A
C2758      C2759   1.522       .  S
C2759      F2763   1.385       .  S
C2759      F2764   1.383       .  S
C2759      F2765   1.376       .  S
C2762      F2766   1.384       .  S
C2762      F2767   1.381       .  S
C2762      F2768   1.378       .  S
C2769      C2770   1.397       .  A
C2769      C2774   1.379       .  A
C2769      H2776   1.084       .  S
C2770      C2771   1.400       .  A
C2771      C2772   1.398       .  A
C2771      C2778   1.512   1_655  S
C2772      C2773   1.404       .  A
C2772      H2777   1.084       .  S
C2773      C2774   1.407       .  A
C2774      C2775   1.518       .  S
C2775      F2779   1.385       .  S
C2775      F2780   1.374       .  S
C2775      F2781   1.382       .  S
C2778      F2782   1.381   1_456  S
C2778      F2783   1.383       .  S
C2778      F2784   1.376   1_556  S
C2785      C2786   1.398       .  A
C2785      C2790   1.391       .  A
C2785      H2792   1.084       .  S
C2786      C2787   1.411       .  A
C2787      C2788   1.396       .  A
C2787      C2794   1.521       .  S
C2788      C2789   1.404       .  A
C2788      H2793   1.084       .  S
C2789      C2790   1.417       .  A
C2790      C2791   1.521       .  S
C2791      F2795   1.383   1_655  S
C2791      F2796   1.379       .  S
C2791      F2797   1.381       .  S
C2794      F2798   1.382       .  S
C2794      F2799   1.381   1_554  S
C2794      F2800   1.381       .  S
C2801      C2802   1.386       .  A
C2801      C2806   1.383       .  A
C2801      H2808   1.084       .  S
C2802      C2803   1.409       .  A
C2803      C2804   1.395       .  A
C2803      C2810   1.518       .  S
C2804      C2805   1.401       .  A
C2804      H2809   1.074       .  S
C2805      C2806   1.410       .  A
C2806      C2807   1.497       .  S
C2807      F2811   1.385   1_556  S
C2807      F2812   1.381       .  S
C2807      F2813   1.372       .  S
C2810      F2814   1.383   1_455  S
C2810      F2815   1.380       .  S
C2810      F2816   1.385       .  S
C2817      C2818   1.387       .  A
C2817      C2822   1.392       .  A
C2817      H2824   1.086       .  S
C2818      C2819   1.403       .  A
C2819      C2820   1.398       .  A
C2819      C2826   1.516   1_556  S
C2820      C2821   1.403       .  A
C2820      H2825   1.077       .  S
C2821      C2822   1.431       .  A
C2822      C2823   1.521       .  S
C2823      F2827   1.384       .  S
C2823      F2828   1.369       .  S
C2823      F2829   1.384       .  S
C2826      F2830   1.381       .  S
C2826      F2831   1.381   1_554  S
C2826      F2832   1.376       .  S
C2833      C2834   1.403       .  A
C2833      C2838   1.399       .  A
C2833      H2840   1.083       .  S
C2834      C2835   1.413       .  A
C2835      C2836   1.393       .  A
C2835      C2842   1.518   1_556  S
C2836      C2837   1.400       .  A
C2836      H2841   1.085       .  S
C2837      C2838   1.412       .  A
C2838      C2839   1.518       .  S
C2839      F2843   1.384       .  S
C2839      F2844   1.383       .  S
C2839      F2845   1.382       .  S
C2842      F2846   1.383   1_565  S
C2842      F2847   1.381       .  S
C2842      F2848   1.375   1_565  S
C2849      C2850   1.397       .  A
C2849      C2854   1.399       .  A
C2849      H2856   1.083       .  S
C2850      C2851   1.414       .  A
C2851      C2852   1.394       .  A
C2851      C2858   1.518   1_565  S
C2852      C2853   1.398       .  A
C2852      H2857   1.081       .  S
C2853      C2854   1.414       .  A
C2854      C2855   1.512       .  S
C2855      F2859   1.384       .  S
C2855      F2860   1.382       .  S
C2855      F2861   1.380       .  S
C2858      F2862   1.382       .  S
C2858      F2863   1.382       .  S
C2858      F2864   1.380       .  S
C2865      C2866   1.402       .  A
C2865      C2870   1.398       .  A
C2865      H2872   1.078       .  S
C2866      C2867   1.411       .  A
C2867      C2868   1.392       .  A
C2867      C2874   1.514       .  S
C2868      C2869   1.401       .  A
C2868      H2873   1.085       .  S
C2869      C2870   1.421       .  A
C2870      C2871   1.523       .  S
C2871      F2875   1.385       .  S
C2871      F2876   1.381       .  S
C2871      F2877   1.382       .  S
C2874      F2878   1.383       .  S
C2874      F2879   1.383       .  S
C2874      F2880   1.378       .  S
C2881      C2882   1.401       .  A
C2881      C2886   1.398       .  A
C2881      H2888   1.084       .  S
C2882      C2883   1.415       .  A
C2883      C2884   1.386       .  A
C2883      C2890   1.522       .  S
C2884      C2885   1.397       .  A
C2884      H2889   1.084       .  S
C2885      C2886   1.410       .  A
C2886      C2887   1.515       .  S
C2887      F2891   1.380       .  S
C2887      F2892   1.383       .  S
C2887      F2893   1.376       .  S
C2890      F2894   1.383       .  S
C2890      F2895   1.379       .  S
C2890      F2896   1.385       .  S
C2897      C2898   1.401       .  A
C2897      C2902   1.395       .  A
C2897      H2904   1.082       .  S
C2898      C2899   1.418       .  A
C2899      C2900   1.393       .  A
C2899      C2906   1.520       .  S
C2900      C2901   1.400       .  A
C2900      H2905   1.085       .  S
C2901      C2902   1.415       .  A
C2902      C2903   1.519       .  S
C2903      F2907   1.382       .  S
C2903      F2908   1.382       .  S
C2903      F2909   1.379       .  S
C2906      F2910   1.383       .  S
C2906      F2911   1.383       .  S
C2906      F2912   1.382       .  S
