geometry optimzed in LAMMPS
_audit_creation_date              2020-11-30 
_audit_creation_method            'lammps2cif' 
_symmetry_space_group_name_H-M    'P1' 
_symmetry_Int_Tables_number       1 
_symmetry_cell_setting            triclinic 
loop_ 
_symmetry_equiv_pos_as_xyz 
  x,y,z 
_cell_length_a                    32.30526294 
_cell_length_b                    33.61801722219457 
_cell_length_c                    34.17021945664845 
_cell_angle_alpha                 89.86947011636072 
_cell_angle_beta                  90.49853980348588 
_cell_angle_gamma                 91.23546877263834 
loop_ 
_atom_site_label 
_atom_site_type_symbol 
_atom_site_fract_x 
_atom_site_fract_y 
_atom_site_fract_z 
_atom_site_charge 
O1          O  0.32194782  0.68415459  0.76405199    -0.79500
O2          O  0.30143668  0.82370508  0.76913526    -0.79500
O3          O  0.27323647  0.72823577  0.67828482    -0.79500
O4          O  0.27745161  0.77995622  0.84364150    -0.79400
O5          O  0.31688305  0.76966463  0.70850039    -0.79600
O6          O  0.32548952  0.75143826  0.80842274    -0.79500
O7          O  0.24655374  0.83865627  0.80162300    -0.79500
O8          O  0.26993948  0.66661882  0.72570416    -0.79500
C9          C  0.30590463  0.66002377  0.74025499     1.10200
C10         C  0.28312580  0.84746315  0.79129420     1.10100
C11         C  0.30996721  0.74129322  0.68447127     1.10200
C12         C  0.31548483  0.77335005  0.83643850     1.10100
O13         O  0.26728482  0.70701325  0.84320837    -0.79500
O14         O  0.23824952  0.79029239  0.67513440    -0.79500
O15         O  0.18782266  0.68992289  0.75209445    -0.79500
O16         O  0.17640293  0.79331473  0.77633165    -0.79500
O17         O  0.21653628  0.83192240  0.73735396    -0.79500
O18         O  0.23925956  0.66948845  0.78935132    -0.79500
O19         O  0.20453201  0.73003454  0.83374881    -0.79400
O20         O  0.18875342  0.75053436  0.69532603    -0.79500
Co21       Co  0.28116542  0.71660447  0.78822473     1.51500
Co22       Co  0.26851440  0.80114236  0.72531625     1.51700
Co23       Co  0.22988725  0.71280035  0.71676415     1.51600
Co24       Co  0.22602772  0.78210810  0.80927513     1.51500
O25         O  0.24931739  0.75448526  0.75864385    -1.41400
C26         C  0.22981643  0.70811824  0.85331362     1.10100
C27         C  0.20243096  0.77518735  0.67023875     1.10200
C28         C  0.20193220  0.66556302  0.77674890     1.10200
C29         C  0.18084586  0.82142578  0.75103821     1.10200
O30         O  0.70695359  0.18619923  0.67657811    -0.79500
O31         O  0.76876625  0.22191757  0.82724700    -0.79500
O32         O  0.79915995  0.22693354  0.69223679    -0.79500
O33         O  0.66453245  0.18589726  0.74942227    -0.79400
O34         O  0.81695250  0.22678583  0.75627949    -0.79600
O35         O  0.63757157  0.22163755  0.70558379    -0.79500
O36         O  0.71447535  0.18522574  0.80913387    -0.79500
O37         O  0.76808557  0.21060570  0.66891704    -0.79500
C38         C  0.74269341  0.18185782  0.66345527     1.10200
C39         C  0.74216690  0.19360144  0.83394580     1.10100
C40         C  0.82349311  0.21653478  0.72070669     1.10200
C41         C  0.63317140  0.19430443  0.73035464     1.10100
O42         O  0.68193949  0.29496726  0.71417155    -0.79500
O43         O  0.77384348  0.30528574  0.74405847    -0.79500
O44         O  0.74243154  0.27931042  0.63702974    -0.79500
O45         O  0.69574875  0.26288621  0.83367734    -0.79500
O46         O  0.73729209  0.30103425  0.80258096    -0.79500
O47         O  0.67838843  0.25598674  0.64361032    -0.79500
O48         O  0.64496622  0.27112879  0.76309843    -0.79400
O49         O  0.80359191  0.29082765  0.69368854    -0.79500
Co50       Co  0.69656916  0.24159916  0.69622859     1.51500
Co51       Co  0.77371732  0.26191334  0.78099857     1.51700
Co52       Co  0.74720853  0.26064240  0.69299687     1.51600
Co53       Co  0.68211852  0.22732978  0.78604851     1.51500
O54         O  0.73011145  0.23562144  0.74750145    -1.41400
C55         C  0.64953843  0.29590274  0.73467706     1.10100
C56         C  0.80504756  0.31053190  0.72447822     1.10200
C57         C  0.70562440  0.27388661  0.62287720     1.10200
C58         C  0.71878665  0.29363348  0.83319744     1.10200
O59         O  0.69221386  0.74176186  0.18991187    -0.79500
O60         O  0.85781576  0.76494312  0.22792031    -0.79500
O61         O  0.73884403  0.81841529  0.21391115    -0.79500
O62         O  0.78770047  0.65271149  0.24018121    -0.79400
O63         O  0.80476476  0.82730604  0.22024943    -0.79600
O64         O  0.74763392  0.67473223  0.19247460    -0.79500
O65         O  0.82945069  0.70802216  0.21734509    -0.79500
O66         O  0.67471798  0.78568429  0.23464674    -0.79500
C67         C  0.67022509  0.77086708  0.20055972     1.10200
C68         C  0.85760910  0.73229810  0.21009539     1.10100
C69         C  0.77122983  0.83565987  0.20326687     1.10200
C70         C  0.77264765  0.64880801  0.20573915     1.10100
O71         O  0.72137155  0.66208967  0.27168199    -0.79500
O72         O  0.77541144  0.81267190  0.30098135    -0.79500
O73         O  0.70858129  0.76027738  0.30983689    -0.79500
O74         O  0.84841942  0.68948941  0.29402709    -0.79500
O75         O  0.82235060  0.74742211  0.30636918    -0.79500
O76         O  0.67119786  0.72309333  0.26953694    -0.79500
O77         O  0.76361746  0.69286568  0.31222727    -0.79400
O78         O  0.71801478  0.84139042  0.28608554    -0.79500
Co79       Co  0.71176376  0.70359393  0.23050818     1.51500
Co80       Co  0.81108075  0.78473257  0.26166088     1.51700
Co81       Co  0.72880765  0.78933323  0.26268686     1.51600
Co82       Co  0.79823357  0.70548441  0.26569260     1.51500
O83         O  0.75981554  0.74365252  0.24256681    -1.41400
C84         C  0.73618895  0.66612390  0.30597640     1.10100
C85         C  0.75559519  0.84500078  0.29772994     1.10200
C86         C  0.67818061  0.73650665  0.30375185     1.10200
C87         C  0.85222888  0.72359563  0.31024956     1.10200
C88         C  0.51398333  0.04730373  0.98222094     0.03000
C89         C  0.54850671  0.04449487  0.00849022     0.03000
C90         C  0.55064638  0.01086185  0.03415917     0.03000
C91         C  0.51699537  0.98298371  0.03600886     0.03000
C92         C  0.48317557  0.98589585  0.00965713     0.03000
C93         C  0.48188728  0.01745981  0.98225653     0.03000
N94         N  0.70837939  0.99596193  0.11052157    -0.02800
C95         C  0.73917233  0.97019647  0.10207871    -0.00200
C96         C  0.77274550  0.99081497  0.08635737    -0.23100
C97         C  0.76483893  0.03038507  0.08980015    -0.23300
C98         C  0.72624021  0.03256616  0.10641640    -0.00300
H99         H  0.80291776  0.97882879  0.08055355     0.13500
H100        H  0.78730247  0.05448118  0.08640580     0.13500
N101        N  0.67432180  0.17196992  0.01655075    -0.02800
C102        C  0.71018861  0.17696574  0.99521587    -0.00200
C103        C  0.73442660  0.20746936  0.01105250    -0.23100
C104        C  0.71359596  0.22251326  0.04168879    -0.23300
C105        C  0.67662191  0.20141470  0.04439290    -0.00300
H106        H  0.76278127  0.22034726  0.99951730     0.13500
H107        H  0.72397581  0.24729799  0.05972132     0.13500
N108        N  0.35288511  0.02108341  0.86337448    -0.02800
C109        C  0.34168968  0.05832284  0.85290775    -0.00200
C110        C  0.34359792  0.06280593  0.81266973    -0.23100
C111        C  0.35205924  0.02644215  0.79751939    -0.23300
C112        C  0.35554822  0.00090677  0.82899538    -0.00300
H113        H  0.33151663  0.08740708  0.79586883     0.13500
H114        H  0.34832324  0.01826677  0.76704991     0.13500
N115        N  0.48304410  0.14510672  0.84839015    -0.02800
C116        C  0.44225167  0.15264718  0.84333576    -0.00200
C117        C  0.42632114  0.12744614  0.81456555    -0.23100
C118        C  0.45957676  0.11288575  0.79502523    -0.23300
C119        C  0.49432555  0.12819309  0.81409549    -0.00300
H120        H  0.39590294  0.12966986  0.80134528     0.13500
H121        H  0.45781564  0.10112249  0.76561806     0.13500
N122        N  0.49822492  0.84751463  0.13872298    -0.02800
C123        C  0.45893526  0.83582690  0.14807019    -0.00200
C124        C  0.45337600  0.79562540  0.14007538    -0.23100
C125        C  0.49119989  0.78117264  0.13065165    -0.23300
C126        C  0.51843071  0.81331001  0.13140639    -0.00300
H127        H  0.42703545  0.77721552  0.14864485     0.13500
H128        H  0.49873581  0.75000263  0.12954355     0.13500
N129        N  0.34520124  0.87682721  0.98910777    -0.02800
C130        C  0.30963533  0.87723064  0.01038497    -0.00200
C131        C  0.27553809  0.87618967  0.98568630    -0.23100
C132        C  0.29034557  0.87288474  0.94850393    -0.23300
C133        C  0.33304922  0.87143630  0.95131374    -0.00300
H134        H  0.24342925  0.87213355  0.99382527     0.13500
H135        H  0.27168563  0.86439425  0.92330963     0.13500
C136        C  0.97527151  0.49329705  0.02585439     0.03000
C137        C  0.96859625  0.46960127  0.99164558     0.03000
C138        C  0.99897969  0.46921581  0.96181417     0.03000
C139        C  0.03606021  0.49241844  0.96647105     0.03000
C140        C  0.04164870  0.51748044  0.00000559     0.03000
C141        C  0.01112630  0.51827689  0.02965056     0.03000
N142        N  0.20413235  0.59198020  0.01137215    -0.02800
C143        C  0.22767641  0.59862349  0.97925795    -0.00200
C144        C  0.26907536  0.59406320  0.98808954    -0.23100
C145        C  0.27166644  0.58733665  0.02734831    -0.23300
C146        C  0.23162130  0.58809867  0.04159778    -0.00300
H147        H  0.29504248  0.60109405  0.96928988     0.13500
H148        H  0.30031357  0.58909006  0.04390436     0.13500
N149        N  0.17818044  0.49112236  0.86519099    -0.02800
C150        C  0.19606072  0.52630581  0.85391048    -0.00200
C151        C  0.23869144  0.52295337  0.85329702    -0.23100
C152        C  0.24746100  0.48457566  0.86289699    -0.23300
C153        C  0.20994042  0.46521736  0.86913598    -0.00300
H154        H  0.26068469  0.54463132  0.84176058     0.13500
H155        H  0.27742628  0.47117557  0.85994223     0.13500
N156        N  0.01304393  0.61729915  0.16880008    -0.02800
C157        C  0.97253742  0.62207841  0.17783971    -0.00200
C158        C  0.96363989  0.60383604  0.21316354    -0.23100
C159        C  0.00068873  0.59348644  0.22935562    -0.23300
C160        C  0.03095644  0.60615575  0.20345496    -0.00300
H161        H  0.93512736  0.60628257  0.22933953     0.13500
H162        H  0.00530074  0.58630882  0.25996898     0.13500
N163        N  0.84450381  0.47654227  0.13931313    -0.02800
C164        C  0.83224208  0.43842132  0.14799173    -0.00200
C165        C  0.78975002  0.43432802  0.14349771    -0.23100
C166        C  0.77485911  0.47146128  0.13636179    -0.23300
C167        C  0.80870477  0.49723955  0.13602433    -0.00300
H168        H  0.77095471  0.40882071  0.15225956     0.13500
H169        H  0.74264090  0.47944871  0.13794075     0.13500
N170        N  0.96537969  0.35036391  0.84219372    -0.02800
C171        C  0.98516047  0.31531964  0.84552194    -0.00200
C172        C  0.95789602  0.28441633  0.85354139    -0.23100
C173        C  0.91933691  0.30013881  0.85094107    -0.23300
C174        C  0.92468398  0.33928624  0.83853818    -0.00300
H175        H  0.96468796  0.25304570  0.85468609     0.13500
H176        H  0.89120402  0.28225031  0.84780478     0.13500
N177        N  0.81051673  0.38555480  0.98554666    -0.02800
C178        C  0.79131289  0.39450626  0.01957829    -0.00200
C179        C  0.75947554  0.42069661  0.01248836    -0.23100
C180        C  0.75230697  0.41964204  0.97310682    -0.23300
C181        C  0.78166543  0.39494786  0.95778374    -0.00300
H182        H  0.73840693  0.43257806  0.03371392     0.13500
H183        H  0.72429500  0.42935982  0.95870957     0.13500
C184        C  0.50414387  0.46829450  0.48976609     0.03000
C185        C  0.47441361  0.46908453  0.52021465     0.03000
C186        C  0.44994672  0.50353902  0.52492021     0.03000
C187        C  0.45380697  0.53659726  0.49895198     0.03000
C188        C  0.48541504  0.53660214  0.47006190     0.03000
C189        C  0.51172087  0.50322580  0.46689200     0.03000
N190        N  0.48083700  0.32969290  0.62214637    -0.02800
C191        C  0.52074333  0.31749276  0.62802210    -0.00200
C192        C  0.52449289  0.27876255  0.61534931    -0.23100
C193        C  0.48553938  0.26454141  0.60715248    -0.23300
C194        C  0.45868409  0.29529110  0.61390916    -0.00300
H195        H  0.55122617  0.26028627  0.61962959     0.13500
H196        H  0.47775458  0.23337811  0.60308769     0.13500
N197        N  0.36323166  0.68408744  0.51569471    -0.02800
C198        C  0.34055239  0.70290026  0.48727375    -0.00200
C199        C  0.33904840  0.74316603  0.49439002    -0.23100
C200        C  0.35933355  0.74994451  0.52874847    -0.23300
C201        C  0.37231783  0.71345869  0.54243317    -0.00300
H202        H  0.32200392  0.76493295  0.47780850     0.13500
H203        H  0.35922562  0.77776898  0.54463074     0.13500
N204        N  0.67677275  0.50741632  0.40600834    -0.02800
C205        C  0.70634479  0.53637232  0.41163545    -0.00200
C206        C  0.74337637  0.51941781  0.42249282    -0.23100
C207        C  0.73703879  0.47900841  0.42121780    -0.23300
C208        C  0.69645867  0.47233340  0.40938332    -0.00300
H209        H  0.77339809  0.53418362  0.42465343     0.13500
H210        H  0.76124736  0.45724357  0.42220789     0.13500
N211        N  0.50261063  0.67725955  0.37208897    -0.02800
C212        C  0.46667278  0.69408459  0.36013056    -0.00200
C213        C  0.46721049  0.73400963  0.36989570    -0.23100
C214        C  0.50608232  0.74323731  0.38351522    -0.23300
C215        C  0.52816857  0.70843424  0.38242333    -0.00300
H216        H  0.44484331  0.75568747  0.36052925     0.13500
H217        H  0.51824172  0.77325903  0.38697402     0.13500
N218        N  0.36837115  0.49052676  0.67116307    -0.02800
C219        C  0.38023756  0.51025238  0.70407937    -0.00200
C220        C  0.38727295  0.48359158  0.73403886    -0.23100
C221        C  0.37646900  0.44668956  0.71953212    -0.23300
C222        C  0.36199695  0.45214983  0.68160134    -0.00300
H223        H  0.39214915  0.49051845  0.76466315     0.13500
H224        H  0.37090219  0.42053964  0.73745239     0.13500
N225        N  0.58308476  0.31613815  0.47253406    -0.02800
C226        C  0.58607856  0.29936175  0.50866112    -0.00200
C227        C  0.56070261  0.26574729  0.51070994    -0.23100
C228        C  0.54774257  0.25770640  0.47331199    -0.23300
C229        C  0.56610769  0.28655620  0.44974747    -0.00300
H230        H  0.55951440  0.24458275  0.53463215     0.13500
H231        H  0.53390816  0.22967400  0.46395436     0.13500
C232        C  0.01540530  0.98470161  0.51951529     0.03000
C233        C  0.02118485  0.95887849  0.48708100     0.03000
C234        C  0.99629482  0.96290213  0.45255013     0.03000
C235        C  0.96465115  0.99217433  0.45135384     0.03000
C236        C  0.95756877  0.01585947  0.48504568     0.03000
C237        C  0.98402567  0.01353731  0.51832723     0.03000
N238        N  0.98902392  0.12266001  0.64835643    -0.02800
C239        C  0.02926643  0.12320029  0.66055054    -0.00200
C240        C  0.03178234  0.11696700  0.70039985    -0.23100
C241        C  0.99215205  0.11580464  0.71398088    -0.23300
C242        C  0.96621909  0.12142485  0.68202161    -0.00300
H243        H  0.05936052  0.12002206  0.71847775     0.13500
H244        H  0.98400321  0.11750669  0.74456673     0.13500
N245        N  0.13914433  0.96336080  0.63965634    -0.02800
C246        C  0.17629559  0.98312341  0.64007880    -0.00200
C247        C  0.20832648  0.95677057  0.64061905    -0.23100
C248        C  0.19037312  0.91969603  0.64365457    -0.23300
C249        C  0.14792780  0.92451816  0.64627911    -0.00300
H250        H  0.24084256  0.96379101  0.64530537     0.13500
H251        H  0.20695612  0.89372138  0.65305517     0.13500
N252        N  0.13760141  0.82945182  0.49312580    -0.02800
C253        C  0.12986078  0.79767762  0.51708855    -0.00200
C254        C  0.12576363  0.76306421  0.49568789    -0.23100
C255        C  0.13504920  0.77304314  0.45792609    -0.23300
C256        C  0.14652294  0.81301957  0.45779560    -0.00300
H257        H  0.12346697  0.73300633  0.50696622     0.13500
H258        H  0.14195952  0.75172425  0.43533975     0.13500
N259        N  0.85061138  0.14340669  0.51911003    -0.02800
C260        C  0.85490587  0.18045502  0.50359371    -0.00200
C261        C  0.86103378  0.20840516  0.53257834    -0.23100
C262        C  0.85764967  0.18832237  0.56722494    -0.23300
C263        C  0.84815536  0.14889543  0.55848529    -0.00300
H264        H  0.86135177  0.24042929  0.52924333     0.13500
H265        H  0.85290260  0.20265627  0.59502824     0.13500
N266        N  0.86830990  0.02184289  0.30973744    -0.02800
C267        C  0.87429520  0.05120297  0.28203798    -0.00200
C268        C  0.85738256  0.03925303  0.24645341    -0.23100
C269        C  0.83905600  0.00298323  0.25203585    -0.23300
C270        C  0.84524401  0.99293078  0.29064060    -0.00300
H271        H  0.85454694  0.05686879  0.22003676     0.13500
H272        H  0.82061416  0.98655132  0.23081934     0.13500
N273        N  0.99883691  0.85610678  0.32006978    -0.02800
C274        C  0.01203961  0.86735229  0.28370724    -0.00200
C275        C  0.97869893  0.86951427  0.25815993    -0.23100
C276        C  0.94536953  0.85353888  0.27734425    -0.23300
C277        C  0.95929757  0.84288772  0.31413505    -0.00300
H278        H  0.98027417  0.87374150  0.22678197     0.13500
H279        H  0.91683032  0.84336675  0.26340860     0.13500
O280        O  0.24089997  0.15580436  0.70475132    -0.79500
O281        O  0.21093646  0.32112419  0.68948450    -0.79500
O282        O  0.14820645  0.20398683  0.71828129    -0.79500
O283        O  0.27195126  0.26377388  0.69019100    -0.79400
O284        O  0.19193432  0.23500754  0.67770803    -0.79600
O285        O  0.30825095  0.21133838  0.70197843    -0.79500
O286        O  0.26900717  0.33150262  0.72574272    -0.79500
O287        O  0.19103494  0.14217584  0.74652976    -0.79500
C288        C  0.21088257  0.13372445  0.71578329     1.10200
C289        C  0.24376038  0.34239363  0.69823589     1.10100
C290        C  0.16023161  0.21251261  0.68363677     1.10200
C291        C  0.30303967  0.24320879  0.68308739     1.10100
O292        O  0.31074124  0.20878057  0.78508193    -0.79500
O293        O  0.14591212  0.27566252  0.73761025    -0.79500
O294        O  0.20664862  0.18262807  0.81956455    -0.79500
O295        O  0.25283013  0.29276294  0.80086689    -0.79500
O296        O  0.20402449  0.31266880  0.76554268    -0.79500
O297        O  0.25442752  0.14935785  0.78787758    -0.79500
O298        O  0.31894417  0.26945232  0.76113569    -0.79400
O299        O  0.15861350  0.24464791  0.79271943    -0.79500
Co300      Co  0.27522093  0.18413832  0.74447049     1.51500
Co301      Co  0.20622877  0.27171747  0.72174412     1.51700
Co302      Co  0.17868422  0.19570589  0.76925083     1.51600
Co303      Co  0.25967035  0.27693515  0.74532592     1.51500
O304        O  0.23068631  0.22503987  0.75336193    -1.41400
C305        C  0.33064249  0.24145700  0.78327229     1.10100
C306        C  0.13576018  0.26724845  0.77282140     1.10200
C307        C  0.23573862  0.15786991  0.81927293     1.10200
C308        C  0.22312298  0.31528457  0.79748853     1.10200
O309        O  0.78363532  0.17997995  0.27121998    -0.79500
O310        O  0.77092340  0.34212646  0.24571863    -0.79500
O311        O  0.79780756  0.27003887  0.17073275    -0.79500
O312        O  0.79273791  0.27295052  0.34982427    -0.79400
O313        O  0.74523754  0.30966894  0.17690415    -0.79600
O314        O  0.76022705  0.21447409  0.33694258    -0.79500
O315        O  0.81336305  0.29788517  0.27288529    -0.79500
O316        O  0.82116961  0.22462361  0.23984553    -0.79500
C317        C  0.81865054  0.19495936  0.26270242     1.10200
C318        C  0.80746710  0.32998863  0.25337059     1.10100
C319        C  0.77566297  0.29714492  0.15731350     1.10200
C320        C  0.78405443  0.23705019  0.35914178     1.10100
O321        O  0.67525793  0.22184176  0.29919382    -0.79500
O322        O  0.67147139  0.28045392  0.20851755    -0.79500
O323        O  0.76229141  0.18286973  0.19837502    -0.79500
O324        O  0.74801146  0.33133088  0.31361175    -0.79500
O325        O  0.69032104  0.32679533  0.27933485    -0.79500
O326        O  0.70499963  0.17905124  0.23337686    -0.79500
O327        O  0.71009897  0.26670910  0.33277885    -0.79400
O328        O  0.71524438  0.23880695  0.17951982    -0.79500
Co329      Co  0.72976881  0.20404885  0.28235446     1.51500
Co330      Co  0.71944723  0.31113682  0.23030429     1.51700
Co331      Co  0.76965046  0.23899887  0.21104078     1.51600
Co332      Co  0.76443033  0.27630639  0.30227254     1.51500
O333        O  0.73991273  0.25988154  0.25481382    -1.41400
C334        C  0.67632646  0.24787126  0.32557735     1.10100
C335        C  0.67901676  0.25367095  0.18304859     1.10200
C336        C  0.72796846  0.16591230  0.20596727     1.10200
C337        C  0.71148821  0.34249671  0.30718077     1.10200
O338        O  0.34590772  0.73127249  0.22076001    -0.79500
O339        O  0.16823378  0.73152101  0.28078479    -0.79500
O340        O  0.26476615  0.69669177  0.31800128    -0.79500
O341        O  0.21007458  0.72575723  0.16316915    -0.79400
O342        O  0.22369563  0.73667834  0.34661359    -0.79600
O343        O  0.26770924  0.70205239  0.18780455    -0.79500
O344        O  0.20488048  0.69893297  0.23801368    -0.79500
O345        O  0.31454172  0.69549328  0.26127060    -0.79500
C346        C  0.34734471  0.70244256  0.24409536     1.10200
C347        C  0.17226206  0.70192306  0.25758444     1.10100
C348        C  0.24724319  0.70665019  0.34849779     1.10200
C349        C  0.23636278  0.69844813  0.16396533     1.10100
O350        O  0.30876256  0.76828270  0.16213759    -0.79500
O351        O  0.25286471  0.81343856  0.31404480    -0.79500
O352        O  0.34691833  0.77862909  0.27955939    -0.79500
O353        O  0.17278799  0.77351889  0.21564749    -0.79500
O354        O  0.19849753  0.81268191  0.25874719    -0.79500
O355        O  0.31025558  0.80665760  0.23284003    -0.79500
O356        O  0.25064518  0.79572244  0.17864210    -0.79400
O357        O  0.29380536  0.77524880  0.34577400    -0.79500
Co358      Co  0.28895110  0.75577757  0.21236602     1.51500
Co359      Co  0.21222959  0.77300067  0.29829549     1.51700
Co360      Co  0.30386461  0.73691115  0.29947433     1.51600
Co361      Co  0.22834695  0.74638724  0.21165554     1.51500
O362        O  0.25810221  0.75441518  0.26337895    -1.41400
C363        C  0.28248858  0.79464463  0.15561001     1.10100
C364        C  0.27035109  0.80532037  0.34546171     1.10200
C365        C  0.34241118  0.80635746  0.25392471     1.10200
C366        C  0.16886270  0.80388805  0.23684016     1.10200
C367        C  0.08944195  0.87214560  0.28029880    -0.20600
C368        C  0.05228655  0.85388305  0.26815886    -0.08700
C369        C  0.05379961  0.82169808  0.24150498     0.30200
C370        C  0.09176792  0.80697587  0.22929242    -0.20600
C371        C  0.12903840  0.82435730  0.24260561    -0.08700
C372        C  0.12737604  0.85814702  0.26717814     0.30200
F373        F  0.16254920  0.87711084  0.27962807    -0.19200
H374        H  0.08925036  0.89716094  0.30016611     0.18500
H375        H  0.09194107  0.78087953  0.21074368     0.18600
F376        F  0.01861369  0.80328050  0.22826863    -0.19200
C377        C  0.89641179  0.11782186  0.25610277    -0.20600
C378        C  0.88247549  0.09477653  0.28836569    -0.08700
C379        C  0.86302209  0.11464047  0.31905084     0.30200
C380        C  0.85040472  0.15382577  0.31360336    -0.20600
C381        C  0.85467116  0.17260464  0.27690938    -0.08700
C382        C  0.88183380  0.15638052  0.24987753     0.30200
F383        F  0.88793059  0.17427405  0.21465877    -0.19200
H384        H  0.91280583  0.10372325  0.23252017     0.18500
H385        H  0.83039667  0.16641966  0.33540120     0.18600
F386        F  0.84942395  0.09457826  0.35107952    -0.19200
C387        C  0.83874101  0.23909495  0.41072536    -0.20600
C388        C  0.80275065  0.22066367  0.39521705    -0.08700
C389        C  0.78668314  0.18617319  0.41353842     0.30200
C390        C  0.80554633  0.17159299  0.44752571    -0.20600
C391        C  0.84024955  0.19137600  0.46396668    -0.08700
C392        C  0.85735217  0.22466601  0.44468234     0.30200
F393        F  0.89199748  0.24338140  0.45880258    -0.19200
H394        H  0.85261324  0.26489604  0.39654272     0.18500
H395        H  0.79188530  0.14584345  0.46192862     0.18600
F396        F  0.75197884  0.16742262  0.39961355    -0.19200
C397        C  0.18479282  0.84766825  0.40351831    -0.20600
C398        C  0.18550954  0.82304509  0.43649678    -0.08700
C399        C  0.22177847  0.80144825  0.44444208     0.30200
C400        C  0.25366309  0.79995655  0.41685719    -0.20600
C401        C  0.25054423  0.82090601  0.38149337    -0.08700
C402        C  0.21784517  0.84813868  0.37725151     0.30200
F403        F  0.21506393  0.87164138  0.34502118    -0.19200
H404        H  0.15748099  0.86452014  0.39660088     0.18500
H405        H  0.27840950  0.77922437  0.42131578     0.18600
F406        F  0.22413143  0.77803996  0.47676766    -0.19200
C407        C  0.22484193  0.08405150  0.66304501    -0.20600
C408        C  0.20011121  0.09652647  0.69421363    -0.08700
C409        C  0.16525807  0.07288252  0.70460016     0.30200
C410        C  0.15627355  0.03733484  0.68491007    -0.20600
C411        C  0.18187021  0.02427227  0.65483790    -0.08700
C412        C  0.21597448  0.04822136  0.64363059     0.30200
F413        F  0.24116374  0.03659977  0.61439709    -0.19200
H414        H  0.25159311  0.10167738  0.65410609     0.18500
H415        H  0.13015175  0.01911556  0.69439583     0.18600
F416        F  0.14002877  0.08358783  0.73415544    -0.19200
C417        C  0.05847528  0.18942052  0.64355417    -0.20600
C418        C  0.06234961  0.14792216  0.64220040    -0.08700
C419        C  0.10190952  0.13229570  0.63741462     0.30200
C420        C  0.13713107  0.15723144  0.64122809    -0.20600
C421        C  0.13309443  0.19727911  0.65178018    -0.08700
C422        C  0.09369931  0.21405154  0.64847179     0.30200
F423        F  0.08863676  0.25297344  0.65732807    -0.19200
H424        H  0.02821887  0.20218072  0.64702378     0.18500
H425        H  0.16733790  0.14420364  0.64152793     0.18600
F426        F  0.10647715  0.09242737  0.63424802    -0.19200
C427        C  0.99087271  0.89415291  0.42341939    -0.20600
C428        C  0.00170014  0.93459276  0.41900917    -0.08700
C429        C  0.01859607  0.94711403  0.38312067     0.30200
C430        C  0.01998665  0.92086257  0.35119266    -0.20600
C431        C  0.00673749  0.88065784  0.35473695    -0.08700
C432        C  0.99451378  0.86732008  0.39225216     0.30200
F433        F  0.98520477  0.82840259  0.39878017    -0.19200
H434        H  0.97918346  0.88331272  0.45114532     0.18500
H435        H  0.03002036  0.93262186  0.32328181     0.18600
F436        F  0.03375271  0.98475742  0.37879748    -0.19200
C437        C  0.87462222  0.99335100  0.37746125    -0.20600
C438        C  0.89067689  0.01737305  0.34692538    -0.08700
C439        C  0.93105172  0.03384425  0.35224965     0.30200
C440        C  0.95437718  0.02557666  0.38606516    -0.20600
C441        C  0.93932696  0.99943564  0.41494122    -0.08700
C442        C  0.89876162  0.98398152  0.41065611     0.30200
F443        F  0.88236927  0.95997431  0.43875269    -0.19200
H444        H  0.84333835  0.98148382  0.37580163     0.18500
H445        H  0.98464156  0.03962000  0.38964007     0.18600
F446        F  0.94907483  0.05683408  0.32427920    -0.19200
C447        C  0.92943498  0.08186220  0.46721766    -0.20600
C448        C  0.92360822  0.04511624  0.48564197    -0.08700
C449        C  0.88920063  0.03921535  0.51004792     0.30200
C450        C  0.86309057  0.07085371  0.51839163    -0.20600
C451        C  0.87084870  0.10902226  0.50268002    -0.08700
C452        C  0.90368515  0.11352511  0.47545710     0.30200
F453        F  0.91406111  0.14922434  0.45941613    -0.19200
H454        H  0.95608202  0.08699812  0.44870968     0.18500
H455        H  0.83822126  0.06607601  0.53897706     0.18600
F456        F  0.88263244  0.00358314  0.52794431    -0.19200
C457        C  0.95940728  0.03454039  0.58517020    -0.20600
C458        C  0.98083100  0.04367803  0.55063908    -0.08700
C459        C  0.99905339  0.08183832  0.54673574     0.30200
C460        C  0.99795596  0.10930118  0.57766635    -0.20600
C461        C  0.97883573  0.09948475  0.61342980    -0.08700
C462        C  0.95822581  0.06194807  0.61618061     0.30200
F463        F  0.93936708  0.05040268  0.64977785    -0.19200
H464        H  0.94445155  0.00561805  0.58852011     0.18500
H465        H  0.01409153  0.13765222  0.57448501     0.18600
F466        F  0.01940624  0.09196504  0.51347480    -0.19200
C467        C  0.08347107  0.00238527  0.55021493    -0.20600
C468        C  0.04475258  0.98341497  0.55344846    -0.08700
C469        C  0.03572966  0.96139958  0.58747483     0.30200
C470        C  0.06605386  0.95681421  0.61682407    -0.20600
C471        C  0.10585433  0.97426591  0.61294969    -0.08700
C472        C  0.11371719  0.99806047  0.57930160     0.30200
F473        F  0.15144986  0.01510089  0.57268205    -0.19200
H474        H  0.09087084  0.01943163  0.52414700     0.18500
H475        H  0.05894353  0.93841665  0.64202017     0.18600
F476        F  0.99823161  0.94298824  0.59154392    -0.19200
C477        C  0.09181095  0.93071340  0.47247378    -0.20600
C478        C  0.05275092  0.92675175  0.49012697    -0.08700
C479        C  0.04378779  0.89211444  0.51164532     0.30200
C480        C  0.07229634  0.86141049  0.51396988    -0.20600
C481        C  0.11112567  0.86419007  0.49514852    -0.08700
C482        C  0.12091031  0.90007057  0.47532366     0.30200
F483        F  0.15873197  0.90591479  0.45927038    -0.19200
H484        H  0.09979584  0.95767578  0.45659183     0.18500
H485        H  0.06302734  0.83469494  0.52958824     0.18600
F486        F  0.00660266  0.88734400  0.52940688    -0.19200
C487        C  0.62583685  0.29442325  0.35470195    -0.20600
C488        C  0.63979178  0.25544753  0.35026388    -0.08700
C489        C  0.62298337  0.22544644  0.37423679     0.30200
C490        C  0.59613570  0.23519886  0.40461133    -0.20600
C491        C  0.58564631  0.27521312  0.41187796    -0.08700
C492        C  0.59960569  0.30444935  0.38542487     0.30200
F493        F  0.58939021  0.34307032  0.38997245    -0.19200
H494        H  0.63609880  0.31730119  0.33521696     0.18500
H495        H  0.58641182  0.21155118  0.42406128     0.18600
F496        F  0.63512625  0.18723779  0.37049990    -0.19200
C497        C  0.25401363  0.41405570  0.69512731    -0.20600
C498        C  0.25622783  0.37754733  0.67590335    -0.08700
C499        C  0.28748922  0.37206841  0.64814491     0.30200
C500        C  0.32155860  0.39845303  0.64703003    -0.20600
C501        C  0.32255349  0.43176052  0.67147188    -0.08700
C502        C  0.28684396  0.44146033  0.69254150     0.30200
F503        F  0.28642830  0.47449236  0.71531253    -0.19200
H504        H  0.23014647  0.41877937  0.71662086     0.18500
H505        H  0.34831796  0.39122592  0.62975352     0.18600
F506        F  0.28858717  0.33772691  0.62741846    -0.19200
C507        C  0.45328101  0.70546616  0.28887525    -0.20600
C508        C  0.44497891  0.68297798  0.32303520    -0.08700
C509        C  0.41020615  0.65748260  0.32327494     0.30200
C510        C  0.38151564  0.65872573  0.29246450    -0.20600
C511        C  0.38588058  0.68697237  0.26202786    -0.08700
C512        C  0.42386888  0.70762098  0.25851993     0.30200
F513        F  0.43050686  0.73333403  0.22843799    -0.19200
H514        H  0.48054417  0.72478610  0.28767634     0.18500
H515        H  0.35308883  0.64126925  0.29525078     0.18600
F516        F  0.40159127  0.63455616  0.35498049    -0.19200
C517        C  0.69466462  0.39919069  0.39987360    -0.20600
C518        C  0.68639316  0.43707860  0.38502059    -0.08700
C519        C  0.67930469  0.44167536  0.34444746     0.30200
C520        C  0.68271713  0.40925918  0.31916003    -0.20600
C521        C  0.69486136  0.37240348  0.33379039    -0.08700
C522        C  0.69941611  0.36717997  0.37449454     0.30200
F523        F  0.71144776  0.33176797  0.38945155    -0.19200
H524        H  0.70102730  0.39519636  0.43080236     0.18500
H525        H  0.68004792  0.41395459  0.28787356     0.18600
F526        F  0.67365680  0.47826020  0.32869718    -0.19200
C527        C  0.30807297  0.68054198  0.38518729    -0.20600
C528        C  0.26621271  0.69233050  0.38592135    -0.08700
C529        C  0.24731897  0.69626169  0.42243148     0.30200
C530        C  0.27102628  0.69266501  0.45696012    -0.20600
C531        C  0.31405103  0.68592026  0.45561905    -0.08700
C532        C  0.33186545  0.67813710  0.41947980     0.30200
F533        F  0.37340854  0.67373994  0.41696567    -0.19200
H534        H  0.32397527  0.67731939  0.35764285     0.18500
H535        H  0.25677892  0.69959160  0.48466090     0.18600
F536        F  0.20701860  0.70639217  0.42468547    -0.19200
C537        C  0.35571539  0.29699751  0.66881944    -0.20600
C538        C  0.33763077  0.25979990  0.65886543    -0.08700
C539        C  0.35739751  0.23672353  0.63078044     0.30200
C540        C  0.39453059  0.25032320  0.61363952    -0.20600
C541        C  0.41428467  0.28644630  0.62539163    -0.08700
C542        C  0.39346915  0.31022042  0.65249416     0.30200
F543        F  0.41081304  0.34491284  0.66545630    -0.19200
H544        H  0.34187129  0.31493008  0.69126453     0.18500
H545        H  0.40873293  0.23137907  0.59227237     0.18600
F546        F  0.34158189  0.20035618  0.62087644    -0.19200
C547        C  0.36684975  0.61313667  0.49196092    -0.20600
C548        C  0.38360945  0.64548595  0.51371348    -0.08700
C549        C  0.42267444  0.63996902  0.53202988     0.30200
C550        C  0.44348733  0.60399553  0.52878683    -0.20600
C551        C  0.42812890  0.57307045  0.50506748    -0.08700
C552        C  0.38904886  0.57765808  0.48718783     0.30200
F553        F  0.37240472  0.54788154  0.46497825    -0.19200
H554        H  0.33667896  0.61512439  0.47829587     0.18500
H555        H  0.47272558  0.60079656  0.54404114     0.18600
F556        F  0.44240284  0.66995070  0.55159812    -0.19200
C557        C  0.38431027  0.49166677  0.56237045    -0.20600
C558        C  0.42493890  0.50704894  0.56072236    -0.08700
C559        C  0.44381554  0.52245021  0.59461592     0.30200
C560        C  0.42361686  0.51969168  0.63033351    -0.20600
C561        C  0.38412211  0.50140824  0.63305114    -0.08700
C562        C  0.36373257  0.48921046  0.59830162     0.30200
F563        F  0.32445692  0.47425953  0.59911015    -0.19200
H564        H  0.36924001  0.48028073  0.53614656     0.18500
H565        H  0.44017949  0.52949472  0.65635405     0.18600
F566        F  0.48304085  0.53770122  0.59355383    -0.19200
C567        C  0.48104268  0.57071821  0.40402743    -0.20600
C568        C  0.49224706  0.57218050  0.44391074    -0.08700
C569        C  0.51114680  0.60727439  0.45832960     0.30200
C570        C  0.51509635  0.64107644  0.43456450    -0.20600
C571        C  0.50195329  0.64060361  0.39505740    -0.08700
C572        C  0.48639899  0.60432831  0.37966699     0.30200
F573        F  0.47712946  0.60112066  0.34102709    -0.19200
H574        H  0.46810805  0.54344801  0.39176932     0.18500
H575        H  0.52810035  0.66797573  0.44746244     0.18600
F576        F  0.52650174  0.60883847  0.49534174    -0.19200
C577        C  0.58239825  0.53323458  0.46299399    -0.20600
C578        C  0.55196129  0.50815289  0.44621130    -0.08700
C579        C  0.56182227  0.48606656  0.41287501     0.30200
C580        C  0.60225782  0.48764226  0.39805353    -0.20600
C581        C  0.63345993  0.51154520  0.41595858    -0.08700
C582        C  0.62242978  0.53530727  0.44805400     0.30200
F583        F  0.65108914  0.55824988  0.46719345    -0.19200
H584        H  0.57567093  0.54984542  0.48919721     0.18500
H585        H  0.60916029  0.46924349  0.37326339     0.18600
F586        F  0.53291490  0.46178625  0.39573558    -0.19200
C587        C  0.56884987  0.42609178  0.49035675    -0.20600
C588        C  0.52646926  0.43035420  0.48172166    -0.08700
C589        C  0.50444067  0.39759295  0.46587627     0.30200
C590        C  0.52348697  0.36087733  0.46119193    -0.20600
C591        C  0.56557736  0.35581191  0.47121242    -0.08700
C592        C  0.58837776  0.38947281  0.48448591     0.30200
F593        F  0.62947762  0.38683181  0.49206279    -0.19200
H594        H  0.58671749  0.45101990  0.50203523     0.18500
H595        H  0.50471122  0.33596795  0.45082429     0.18600
F596        F  0.46399268  0.40093978  0.45555314    -0.19200
C597        C  0.44292835  0.40419088  0.54565606    -0.20600
C598        C  0.47222970  0.43535558  0.54967612    -0.08700
C599        C  0.50068887  0.43341648  0.58098176     0.30200
C600        C  0.50092330  0.40034015  0.60643886    -0.20600
C601        C  0.47366386  0.36728064  0.60099642    -0.08700
C602        C  0.44368194  0.37052056  0.57035921     0.30200
F603        F  0.41617652  0.34058810  0.56235759    -0.19200
H604        H  0.42027935  0.40516809  0.52215601     0.18500
H605        H  0.52382066  0.39999811  0.62962611     0.18600
F606        F  0.52916738  0.46319527  0.58636082    -0.19200
C607        C  0.82350258  0.34584972  0.06738082    -0.20600
C608        C  0.78843501  0.36544209  0.05259340    -0.08700
C609        C  0.74941567  0.35510389  0.06834433     0.30200
C610        C  0.74637271  0.33030733  0.10040916    -0.20600
C611        C  0.78149092  0.31432298  0.11793896    -0.08700
C612        C  0.81990844  0.31932325  0.09926836     0.30200
F613        F  0.85396280  0.30038633  0.11260602    -0.19200
H614        H  0.85362561  0.35187875  0.05531531     0.18500
H615        H  0.71600405  0.32478738  0.11252314     0.18600
F616        F  0.71343963  0.36872232  0.05324736    -0.19200
C617        C  0.03807597  0.32493681  0.79344063    -0.20600
C618        C  0.02679234  0.30866318  0.82986275    -0.08700
C619        C  0.05280611  0.28150045  0.84823022     0.30200
C620        C  0.08854757  0.26939943  0.82969966    -0.20600
C621        C  0.09891171  0.28359343  0.79211029    -0.08700
C622        C  0.07369971  0.31222914  0.77438049     0.30200
F623        F  0.08295594  0.32741062  0.73860284    -0.19200
H624        H  0.01810205  0.34583396  0.77879380     0.18500
H625        H  0.10747216  0.24776520  0.84454506     0.18600
F626        F  0.04303602  0.26583063  0.88371351    -0.19200
C627        C  0.86255444  0.37525658  0.17286215    -0.20600
C628        C  0.85104995  0.41454666  0.18007352    -0.08700
C629        C  0.84351538  0.42565763  0.21900777     0.30200
C630        C  0.83901277  0.39644381  0.24804733    -0.20600
C631        C  0.84138918  0.35592386  0.23848981    -0.08700
C632        C  0.85872764  0.34610888  0.20230559     0.30200
F633        F  0.86571737  0.30755952  0.19354698    -0.19200
H634        H  0.87058686  0.36663212  0.14353832     0.18500
H635        H  0.82632749  0.40498878  0.27597600     0.18600
F636        F  0.83298657  0.46349846  0.22749130    -0.19200
C637        C  0.14079679  0.64816271  0.21518003    -0.20600
C638        C  0.13737059  0.67358681  0.24793357    -0.08700
C639        C  0.09916274  0.67462850  0.26708940     0.30200
C640        C  0.06539941  0.65163127  0.25323164    -0.20600
C641        C  0.06847210  0.62754789  0.21947534    -0.08700
C642        C  0.10673009  0.62602023  0.20071676     0.30200
F643        F  0.11119126  0.60344686  0.16821441    -0.19200
H644        H  0.16963614  0.64644145  0.19957102     0.18500
H645        H  0.03616884  0.65402907  0.26818884     0.18600
F646        F  0.09390779  0.69866994  0.29843298    -0.19200
C647        C  0.17459227  0.40773018  0.83718858    -0.20600
C648        C  0.20540723  0.42156337  0.86308858    -0.08700
C649        C  0.23718845  0.39553494  0.87417653     0.30200
C650        C  0.24090363  0.35861086  0.85550379    -0.20600
C651        C  0.21298632  0.34722466  0.82564121    -0.08700
C652        C  0.17842074  0.37128698  0.81834086     0.30200
F653        F  0.15042802  0.36191382  0.78988410    -0.19200
H654        H  0.14984338  0.42698131  0.82801046     0.18500
H655        H  0.26744907  0.34056982  0.86213296     0.18600
F656        F  0.26655637  0.40717930  0.90065099    -0.19200
C657        C  0.19207600  0.63163391  0.08539956    -0.20600
C658        C  0.22400671  0.60442559  0.08114849    -0.08700
C659        C  0.25442538  0.60217556  0.11093862     0.30200
C660        C  0.25755121  0.63193597  0.13937827    -0.20600
C661        C  0.22921547  0.66291869  0.13945346    -0.08700
C662        C  0.19435538  0.66042752  0.11441029     0.30200
F663        F  0.16386573  0.68756217  0.11571699    -0.19200
H664        H  0.16738842  0.63371775  0.06398640     0.18500
H665        H  0.28327232  0.63183891  0.15992694     0.18600
F666        F  0.28317021  0.57332632  0.11063105    -0.19200
C667        C  0.06803318  0.50336688  0.89959105    -0.20600
C668        C  0.07078817  0.48833783  0.93799380    -0.08700
C669        C  0.10781678  0.47087559  0.95017815     0.30200
C670        C  0.14214041  0.47095467  0.92564812    -0.20600
C671        C  0.14044595  0.48767096  0.88784979    -0.08700
C672        C  0.10247160  0.50286522  0.87457124     0.30200
F673        F  0.09846930  0.51688415  0.83753787    -0.19200
H674        H  0.03948620  0.51626476  0.88934852     0.18500
H675        H  0.17071116  0.45890294  0.93681508     0.18600
F676        F  0.11106824  0.45445684  0.98636348    -0.19200
C677        C  0.10893825  0.52950603  0.03519059    -0.20600
C678        C  0.08126884  0.54048281  0.00549812    -0.08700
C679        C  0.09310871  0.57072627  0.97938269     0.30200
C680        C  0.13257300  0.58860749  0.98208006    -0.20600
C681        C  0.16136984  0.57688597  0.01108548    -0.08700
C682        C  0.14842751  0.54715562  0.03797969     0.30200
F683        F  0.17460513  0.53296581  0.06565277    -0.19200
H684        H  0.10066620  0.50570562  0.05512725     0.18500
H685        H  0.13982397  0.61082435  0.96096236     0.18600
F686        F  0.06687036  0.58233034  0.95048988    -0.19200
C687        C  0.00945866  0.58605011  0.06237323    -0.20600
C688        C  0.01667848  0.54496209  0.06497938    -0.08700
C689        C  0.02754853  0.52919579  0.10172197     0.30200
C690        C  0.02921640  0.55347229  0.13518891    -0.20600
C691        C  0.02005166  0.59440406  0.13319007    -0.08700
C692        C  0.01092102  0.61043988  0.09598526     0.30200
F693        F  0.00185626  0.64949442  0.09245345    -0.19200
H694        H  0.00129938  0.59901125  0.03438382     0.18500
H695        H  0.03580318  0.53964638  0.16311945     0.18600
F696        F  0.03564892  0.48993129  0.10543263    -0.19200
C697        C  0.91473310  0.52077264  0.06098973    -0.20600
C698        C  0.94453965  0.49152492  0.05810012    -0.08700
C699        C  0.94406481  0.46000326  0.08501379     0.30200
C700        C  0.91333699  0.45730574  0.11367263    -0.20600
C701        C  0.88105082  0.48499992  0.11529298    -0.08700
C702        C  0.88295685  0.51744879  0.08843045     0.30200
F703        F  0.85318975  0.54504444  0.08619133    -0.19200
H704        H  0.91492385  0.54542987  0.04051859     0.18500
H705        H  0.91398867  0.43223783  0.13340711     0.18600
F706        F  0.97281271  0.43124358  0.08294454    -0.19200
C707        C  0.85415431  0.44652338  0.97622838    -0.20600
C708        C  0.85112259  0.40484381  0.98162062    -0.08700
C709        C  0.88803238  0.38401212  0.98744937     0.30200
C710        C  0.92640925  0.40477625  0.99023422    -0.20600
C711        C  0.92863155  0.44654183  0.98651891    -0.08700
C712        C  0.89220719  0.46693389  0.97826432     0.30200
F713        F  0.89336910  0.50694282  0.97280361    -0.19200
H714        H  0.82658844  0.46367517  0.97157004     0.18500
H715        H  0.95432698  0.38838459  0.99591273     0.18600
F716        F  0.88689530  0.34382460  0.99107177    -0.19200
C717        C  0.00795363  0.37739506  0.89819163    -0.20600
C718        C  0.97784760  0.38310703  0.86833580    -0.08700
C719        C  0.95720993  0.41974929  0.86797891     0.30200
C720        C  0.96495778  0.44833202  0.89750374    -0.20600
C721        C  0.99363658  0.44124223  0.92786102    -0.08700
C722        C  0.01545671  0.40571829  0.92743866     0.30200
F723        F  0.04258755  0.39737521  0.95672482    -0.19200
H724        H  0.02464283  0.34994918  0.90046973     0.18500
H725        H  0.94783704  0.47568344  0.89723463     0.18600
F726        F  0.92893024  0.42761213  0.83961710    -0.19200
C727        C  0.26947956  0.87015178  0.07312278    -0.20600
C728        C  0.30651447  0.86473412  0.05222281    -0.08700
C729        C  0.33709116  0.84087294  0.06909285     0.30200
C730        C  0.32947419  0.82080625  0.10405398    -0.20600
C731        C  0.29101773  0.82302010  0.12303168    -0.08700
C732        C  0.26160554  0.84933518  0.10812251     0.30200
F733        F  0.22452325  0.85324385  0.12588570    -0.19200
H734        H  0.24554488  0.88883239  0.06124945     0.18500
H735        H  0.35336346  0.80153949  0.11509115     0.18600
F736        F  0.37294782  0.83354478  0.05030726    -0.19200
C737        C  0.44883934  0.83156094  0.21996427    -0.20600
C738        C  0.43789349  0.84936282  0.18395906    -0.08700
C739        C  0.39899080  0.86647398  0.18046826     0.30200
C740        C  0.36916447  0.85921271  0.20919952    -0.20600
C741        C  0.37717036  0.83296109  0.24067244    -0.08700
C742        C  0.41854876  0.82315867  0.24824861     0.30200
F743        F  0.42853725  0.80046445  0.27969413    -0.19200
H744        H  0.47910190  0.81866728  0.22353362     0.18500
H745        H  0.33796427  0.86896496  0.20334135     0.18600
F746        F  0.38792763  0.88507811  0.14679906    -0.19200
C747        C  0.43618645  0.21329733  0.80251805    -0.20600
C748        C  0.42868552  0.19443223  0.83879976    -0.08700
C749        C  0.39714837  0.20902835  0.86233986     0.30200
C750        C  0.36721461  0.23343884  0.84570061    -0.20600
C751        C  0.36932108  0.24374907  0.80589049    -0.08700
C752        C  0.40625571  0.23765014  0.78581975     0.30200
F753        F  0.40955256  0.24802621  0.74752492    -0.19200
H754        H  0.46126363  0.20367264  0.78421477     0.18500
H755        H  0.33948516  0.23932546  0.86212869     0.18600
F756        F  0.39265085  0.19652516  0.89977245    -0.19200
C757        C  0.28527505  0.14768850  0.87240966    -0.20600
C758        C  0.24808213  0.13535764  0.85411757    -0.08700
C759        C  0.23730085  0.09463463  0.85437308     0.30200
C760        C  0.26736231  0.06672498  0.86373480    -0.20600
C761        C  0.30810076  0.07964601  0.87230181    -0.08700
C762        C  0.31527059  0.11961697  0.88164198     0.30200
F763        F  0.35373739  0.13180316  0.89267147    -0.19200
H764        H  0.29399815  0.17893553  0.87305735     0.18500
H765        H  0.26103093  0.03574100  0.85683307     0.18600
F766        F  0.20136285  0.08179192  0.83725019    -0.19200
C767        C  0.64100555  0.18605400  0.10745321    -0.20600
C768        C  0.64717787  0.21214753  0.07588089    -0.08700
C769        C  0.64177870  0.25319693  0.08262818     0.30200
C770        C  0.64308177  0.26804231  0.12096180    -0.20600
C771        C  0.64809606  0.24191211  0.15259673    -0.08700
C772        C  0.64050514  0.20114364  0.14583489     0.30200
F773        F  0.63871340  0.17562065  0.17650354    -0.19200
H774        H  0.64275815  0.15425193  0.10313746     0.18500
H775        H  0.64695938  0.29980286  0.12528255     0.18600
F776        F  0.64455681  0.27940048  0.05237693    -0.19200
C777        C  0.72083579  0.10535162  0.11468912    -0.20600
C778        C  0.71509400  0.06715076  0.13021913    -0.08700
C779        C  0.70690322  0.06250701  0.17049856     0.30200
C780        C  0.70592583  0.09573947  0.19494764    -0.20600
C781        C  0.71516375  0.13348204  0.17978903    -0.08700
C782        C  0.72177982  0.13820630  0.13933481     0.30200
F783        F  0.73212871  0.17438771  0.12409078    -0.19200
H784        H  0.72777578  0.10942964  0.08395114     0.18500
H785        H  0.70224151  0.09156088  0.22617342     0.18600
F786        F  0.70395301  0.02573902  0.18687926    -0.19200
C787        C  0.40792739  0.02996680  0.96112604    -0.20600
C788        C  0.44793828  0.01746016  0.95188117    -0.08700
C789        C  0.45521202  0.00332388  0.91400562     0.30200
C790        C  0.42346995  0.00269913  0.88576120    -0.20600
C791        C  0.38341932  0.01610602  0.89448422    -0.08700
C792        C  0.37602119  0.02937761  0.93283946     0.30200
F793        F  0.33802910  0.04204121  0.94294588    -0.19200
H794        H  0.40153045  0.04059934  0.99027246     0.18500
H795        H  0.43074509  0.99287047  0.85653821     0.18600
F796        F  0.49324521  0.99035091  0.90424488    -0.19200
C797        C  0.45385160  0.92050714  0.98570373    -0.20600
C798        C  0.44980857  0.95447141  0.00898537    -0.08700
C799        C  0.41294298  0.95970746  0.02944768     0.30200
C800        C  0.37959275  0.93293099  0.02442999    -0.20600
C801        C  0.38240050  0.89980989  0.99937969    -0.08700
C802        C  0.42084656  0.89304729  0.98135416     0.30200
F803        F  0.42690662  0.86013324  0.95954524    -0.19200
H804        H  0.48242027  0.91571640  0.97022815     0.18500
H805        H  0.35082097  0.93929236  0.03885560     0.18600
F806        F  0.40854375  0.99182109  0.05289096    -0.19200
C807        C  0.60086823  0.14742078  0.02135070    -0.20600
C808        C  0.64272153  0.14029631  0.01303833    -0.08700
C809        C  0.65324279  0.10102022  0.00301642     0.30200
C810        C  0.62278163  0.07043934  0.00074045    -0.20600
C811        C  0.58119974  0.07747520  0.00994653    -0.08700
C812        C  0.57074356  0.11650887  0.02045833     0.30200
F813        F  0.53128817  0.12471102  0.03047923    -0.19200
H814        H  0.59126757  0.17707981  0.02871134     0.18500
H815        H  0.63187296  0.04104583  0.99186991     0.18600
F816        F  0.69323479  0.09170922  0.99655237    -0.28200
C817        C  0.53973260  0.07983016  0.92072894    -0.20600
C818        C  0.51224432  0.07959024  0.95220676    -0.08700
C819        C  0.47997221  0.10684831  0.95217193     0.30200
C820        C  0.47275897  0.13082758  0.91939159    -0.20600
C821        C  0.49723496  0.12798298  0.88547864    -0.08700
C822        C  0.53277274  0.10393231  0.88787793     0.30200
F823        F  0.55973023  0.10164981  0.85783839    -0.19200
H824        H  0.56530527  0.05955036  0.92059515     0.18500
H825        H  0.44635166  0.14974704  0.91979505     0.18600
F826        F  0.45390456  0.10862827  0.98302622    -0.19200
C827        C  0.49678452  0.95354240  0.10102631    -0.20600
C828        C  0.51701498  0.94976377  0.06501851    -0.08700
C829        C  0.53349599  0.91305210  0.05504735     0.30200
C830        C  0.52880195  0.88042508  0.08008243    -0.20600
C831        C  0.50728474  0.88328081  0.11586653    -0.08700
C832        C  0.49203080  0.92073703  0.12634928     0.30200
F833        F  0.47223294  0.92568455  0.16072777    -0.19200
H834        H  0.48369366  0.98175789  0.10901490     0.18500
H835        H  0.54059727  0.85229267  0.07030940     0.18600
F836        F  0.55241291  0.90822706  0.02011831    -0.19200
C837        C  0.61897507  0.97787887  0.04131316    -0.20600
C838        C  0.58911253  0.00277027  0.05709257    -0.08700
C839        C  0.59626051  0.01936381  0.09416822     0.30200
C840        C  0.63396239  0.01323828  0.11384219    -0.20600
C841        C  0.66577974  0.99112669  0.09665315    -0.08700
C842        C  0.65694097  0.97229394  0.06048354     0.30200
F843        F  0.68609700  0.95111534  0.04188694    -0.19200
H844        H  0.61368668  0.96437764  0.01290157     0.18500
H845        H  0.63890867  0.02762117  0.14172538     0.18600
F846        F  0.56735913  0.04257255  0.11069085    -0.19200
C847        C  0.82057078  0.88526973  0.31205790    -0.20600
C848        C  0.77722957  0.88405637  0.30560434    -0.08700
C849        C  0.75661362  0.92036651  0.30280001     0.30200
C850        C  0.77917550  0.95651587  0.30348232    -0.20600
C851        C  0.82273502  0.95746866  0.30653823    -0.08700
C852        C  0.84314043  0.92150088  0.31214596     0.30200
F853        F  0.88511345  0.92113923  0.31408245    -0.19200
H854        H  0.83755787  0.85792772  0.31440069     0.18500
H855        H  0.76285361  0.98385851  0.29816307     0.18600
F856        F  0.71505671  0.92102696  0.29681005    -0.19200
C857        C  0.72512162  0.89930842  0.12258158    -0.20600
C858        C  0.74774841  0.93493371  0.12707005    -0.08700
C859        C  0.78039016  0.93657438  0.15495947     0.30200
C860        C  0.79010667  0.90323909  0.17763956    -0.20600
C861        C  0.76727764  0.86761847  0.17344463    -0.08700
C862        C  0.73477510  0.86593907  0.14538814     0.30200
F863        F  0.71196995  0.83199483  0.14024858    -0.19200
H864        H  0.70008504  0.89723135  0.10134898     0.18500
H865        H  0.81410687  0.90592849  0.19989686     0.18600
F866        F  0.80226658  0.97095085  0.16104727    -0.19200
C867        C  0.93268251  0.72337345  0.19831330    -0.20600
C868        C  0.89167275  0.71800224  0.18528450    -0.08700
C869        C  0.88266088  0.68698127  0.15844709     0.30200
C870        C  0.91162487  0.65748464  0.15152959    -0.20600
C871        C  0.95058485  0.65954211  0.16964640    -0.08700
C872        C  0.96211042  0.69439435  0.19041575     0.30200
F873        F  0.99982112  0.69758698  0.20799906    -0.19200
H874        H  0.94055321  0.74683416  0.21892423     0.18500
H875        H  0.90211482  0.63105859  0.13541620     0.18600
F876        F  0.84379218  0.68193388  0.14359502    -0.19200
C877        C  0.92765993  0.73613948  0.31255611    -0.20600
C878        C  0.88929532  0.73914748  0.33085093    -0.08700
C879        C  0.88317533  0.77121379  0.35669013     0.30200
C880        C  0.90906539  0.80487579  0.35470837    -0.20600
C881        C  0.94350471  0.80485600  0.33034224    -0.08700
C882        C  0.95521386  0.76885524  0.31292409     0.30200
F883        F  0.99017822  0.76729909  0.29145391    -0.19200
H884        H  0.93357628  0.71144261  0.29321523     0.18500
H885        H  0.90000923  0.83204031  0.36901339     0.18600
F886        F  0.84749184  0.77346462  0.37724077    -0.19200
C887        C  0.74177485  0.63752240  0.37402942    -0.20600
C888        C  0.72310280  0.63723544  0.33672397    -0.08700
C889        C  0.69344969  0.60697867  0.32793982     0.30200
C890        C  0.68449814  0.57699558  0.35491069    -0.20600
C891        C  0.70593238  0.57510580  0.39062832    -0.08700
C892        C  0.73350139  0.60662109  0.40073782     0.30200
F893        F  0.75400508  0.60650040  0.43557145    -0.19200
H894        H  0.76431566  0.66053776  0.38182814     0.18500
H895        H  0.66323259  0.55327390  0.34615269     0.18600
F896        F  0.67467224  0.60459519  0.29229205    -0.19200
C897        C  0.82031466  0.59253061  0.19459755    -0.20600
C898        C  0.78525062  0.61370930  0.18247399    -0.08700
C899        C  0.76167228  0.59892871  0.15068498     0.30200
C900        C  0.77086550  0.56196564  0.13412479    -0.20600
C901        C  0.80418056  0.53952082  0.14831901    -0.08700
C902        C  0.82986673  0.55606677  0.17771053     0.30200
F903        F  0.86255243  0.53586294  0.19219613    -0.19200
H904        H  0.83978115  0.60354424  0.21834071     0.18500
H905        H  0.75103889  0.55015547  0.11102530     0.18600
F906        F  0.72846672  0.61892146  0.13703565    -0.19200
C907        C  0.62161240  0.76468060  0.14347623    -0.20600
C908        C  0.63787747  0.78715331  0.17476758    -0.08700
C909        C  0.61974130  0.82370137  0.18398942     0.30200
C910        C  0.58277347  0.83441328  0.16608782    -0.20600
C911        C  0.56331742  0.80902180  0.13877981    -0.08700
C912        C  0.58456849  0.77563027  0.12537270     0.30200
F913        F  0.56821911  0.75219610  0.09663401    -0.19200
H914        H  0.63584627  0.73720996  0.13489388     0.18500
H915        H  0.56760670  0.86079704  0.17634203     0.18600
F916        F  0.63605098  0.84786708  0.21224030    -0.19200
C917        C  0.62714909  0.68827124  0.33042163    -0.20600
C918        C  0.64821773  0.72499137  0.33441680    -0.08700
C919        C  0.63481159  0.75185274  0.36271417     0.30200
C920        C  0.59790034  0.74379523  0.38293627    -0.20600
C921        C  0.57362568  0.70925767  0.37461683    -0.08700
C922        C  0.59065869  0.68008970  0.35047433     0.30200
F923        F  0.56999667  0.64555466  0.34217563    -0.19200
H924        H  0.63690839  0.66706766  0.30885062     0.18500
H925        H  0.58661845  0.76630783  0.40249281     0.18600
F926        F  0.65444175  0.78762819  0.36753588    -0.19200
C927        C  0.83275902  0.35699948  0.77452096    -0.20600
C928        C  0.84117618  0.33135010  0.74299624    -0.08700
C929        C  0.88184662  0.31851142  0.73825521     0.30200
C930        C  0.91179781  0.32713557  0.76731042    -0.20600
C931        C  0.90115771  0.34748169  0.80190449    -0.08700
C932        C  0.86200656  0.36416647  0.80418092     0.30200
F933        F  0.85034735  0.38314295  0.83719756    -0.19200
H934        H  0.80167928  0.36761086  0.77876942     0.18500
H935        H  0.94174885  0.31345751  0.76521584     0.18600
F936        F  0.89125423  0.29351443  0.70866542    -0.19200
C937        C  0.88093715  0.19810233  0.67551313    -0.20600
C938        C  0.85939966  0.19128959  0.71064023    -0.08700
C939        C  0.87070324  0.15873203  0.73393265     0.30200
C940        C  0.90286130  0.13395596  0.72233581    -0.20600
C941        C  0.92566145  0.14160115  0.68789878    -0.08700
C942        C  0.91373345  0.17383706  0.66425721     0.30200
F943        F  0.93510490  0.18338828  0.63142314    -0.19200
H944        H  0.87307178  0.22324441  0.65729072     0.18500
H945        H  0.91087778  0.10930724  0.74117741     0.18600
F946        F  0.84985286  0.15008044  0.76730531    -0.19200
C947        C  0.68715446  0.16107130  0.92650445    -0.20600
C948        C  0.71909860  0.16363904  0.95430503    -0.08700
C949        C  0.76044964  0.16545461  0.94049025     0.30200
C950        C  0.76883559  0.17316266  0.90085663    -0.20600
C951        C  0.73638502  0.17553409  0.87365606    -0.08700
C952        C  0.69563977  0.16587362  0.88659999     0.30200
F953        F  0.66289981  0.16559332  0.86138827    -0.19200
H954        H  0.65516096  0.15931990  0.93561312     0.18500
H955        H  0.80044830  0.17897223  0.89181478     0.18600
F956        F  0.79282141  0.16370806  0.96599393    -0.19200
C957        C  0.73926507  0.35976631  0.86024691    -0.20600
C958        C  0.72925988  0.31939332  0.86741529    -0.08700
C959        C  0.73913443  0.30339106  0.90439025     0.30200
C960        C  0.75861667  0.32743933  0.93318554    -0.20600
C961        C  0.76848200  0.36776259  0.92560481    -0.08700
C962        C  0.75823066  0.38368854  0.88894727     0.30200
F963        F  0.76667941  0.42258177  0.88093248    -0.19200
H964        H  0.73317047  0.37269209  0.83174597     0.18500
H965        H  0.76520480  0.31481498  0.96171743     0.18600
F966        F  0.73173421  0.26429026  0.91208955    -0.19200
C967        C  0.58339527  0.19609233  0.78345302    -0.20600
C968        C  0.59321894  0.18146587  0.74642329    -0.08700
C969        C  0.57135888  0.14826530  0.73170687     0.30200
C970        C  0.53988577  0.13013173  0.75401363    -0.20600
C971        C  0.53000228  0.14486113  0.79141463    -0.08700
C972        C  0.55239851  0.17831052  0.80571528     0.30200
F973        F  0.54505473  0.19399914  0.84149640    -0.19200
H974        H  0.60124941  0.22032003  0.79634118     0.18500
H975        H  0.52386460  0.10422006  0.74219585     0.18600
F976        F  0.58180486  0.13228579  0.69682405    -0.19200
C977        C  0.57255428  0.30217527  0.72550920    -0.20600
C978        C  0.61279140  0.31696714  0.71787468    -0.08700
C979        C  0.61778237  0.34301201  0.68571874     0.30200
C980        C  0.58572310  0.34751205  0.65789454    -0.20600
C981        C  0.54704683  0.32834274  0.66296202    -0.08700
C982        C  0.53998012  0.30807156  0.69862675     0.30200
F983        F  0.50314779  0.28897026  0.70479193    -0.19200
H984        H  0.56718167  0.28228001  0.74999635     0.18500
H985        H  0.59219310  0.36338250  0.63095885     0.18600
F986        F  0.65498734  0.36119363  0.67942732    -0.19200
C987        C  0.63699834  0.32912975  0.55698213    -0.20600
C988        C  0.62611804  0.29889965  0.53047754    -0.08700
C989        C  0.65169835  0.26545921  0.52796548     0.30200
C990        C  0.68366035  0.25998490  0.55521300    -0.20600
C991        C  0.69180927  0.28838317  0.58434138    -0.08700
C992        C  0.67052165  0.32444775  0.58284648     0.30200
F993        F  0.67947694  0.35350405  0.60912140    -0.19200
H994        H  0.61809427  0.35520379  0.55938935     0.18500
H995        H  0.69926511  0.23176766  0.55597332     0.18600
F996        F  0.64336355  0.23628262  0.50145001    -0.19200
C997        C  0.74417495  0.14864451  0.60006322    -0.20600
C998        C  0.75568278  0.14791270  0.63967661    -0.08700
C999        C  0.79271365  0.12938270  0.65015364     0.30200
C1000       C  0.82240581  0.12186446  0.62156845    -0.20600
C1001       C  0.81421934  0.13115903  0.58222543    -0.08700
C1002       C  0.77322325  0.14001247  0.57127626     0.30200
F1003       F  0.76374902  0.14855382  0.53347422    -0.19200
H1004       H  0.71557831  0.16246925  0.59120480     0.18500
H1005       H  0.85338881  0.11411872  0.63070074     0.18600
F1006       F  0.80254715  0.12451087  0.68844533    -0.19200
C1007       C  0.34687054  0.80238057  0.93303559    -0.20600
C1008       C  0.35309142  0.84308449  0.92509753    -0.08700
C1009       C  0.36543960  0.85491623  0.88753173     0.30200
C1010       C  0.36285820  0.82751723  0.85678081    -0.20600
C1011       C  0.34647011  0.78926916  0.86376766    -0.08700
C1012       C  0.34368898  0.77536114  0.90225008     0.30200
F1013       F  0.32959882  0.73769372  0.90933727    -0.19200
H1014       H  0.33801011  0.79260135  0.96207312     0.18500
H1015       H  0.36772117  0.83763925  0.82711771     0.18600
F1016       F  0.37509448  0.89358485  0.87997587    -0.19200
C1017       C  0.19831813  0.68763208  0.91747973    -0.20600
C1018       C  0.21779487  0.67762826  0.88248762    -0.08700
C1019       C  0.23520576  0.63946529  0.87912773     0.30200
C1020       C  0.23299458  0.61236678  0.90949414    -0.20600
C1021       C  0.21619506  0.62293759  0.94511308    -0.08700
C1022       C  0.19876005  0.66091546  0.94921285     0.30200
F1023       F  0.18519801  0.67318529  0.98457948    -0.19200
H1024       H  0.18656496  0.71726225  0.92150018     0.18500
H1025       H  0.24834430  0.58423307  0.90653617     0.18600
F1026       F  0.25738518  0.62875028  0.84753675    -0.19200
C1027       C  0.12601335  0.83308979  0.70207272    -0.20600
C1028       C  0.14575675  0.84523060  0.73694239    -0.08700
C1029       C  0.14692273  0.88609248  0.74583148     0.30200
C1030       C  0.13744573  0.91402262  0.71680718    -0.20600
C1031       C  0.12829293  0.90132728  0.67842846    -0.08700
C1032       C  0.11811446  0.86100334  0.67241831     0.30200
F1033       F  0.10681832  0.84810727  0.63623225    -0.19200
H1034       H  0.12301882  0.80175314  0.69533058     0.18500
H1035       H  0.14498452  0.94507653  0.72236484     0.18600
F1036       F  0.16478233  0.89908752  0.77971880    -0.19200
C1037       C  0.33842948  0.89987252  0.78323928    -0.20600
C1038       C  0.30366955  0.88539508  0.80372664    -0.08700
C1039       C  0.28911461  0.90762535  0.83553731     0.30200
C1040       C  0.30861427  0.94377232  0.84590452    -0.20600
C1041       C  0.34243301  0.95873678  0.82442051    -0.08700
C1042       C  0.35752143  0.93615091  0.79329956     0.30200
F1043       F  0.38976148  0.94999551  0.77159102    -0.19200
H1044       H  0.35032587  0.88349548  0.75866236     0.18500
H1045       H  0.29587022  0.96109062  0.86944604     0.18600
F1046       F  0.25565585  0.89494002  0.85618686    -0.19200
C1047       C  0.33345850  0.68840644  0.64052968    -0.20600
C1048       C  0.34223219  0.72513641  0.65886919    -0.08700
C1049       C  0.37490224  0.74896683  0.64457195     0.30200
C1050       C  0.39215266  0.73987521  0.60822403    -0.20600
C1051       C  0.37575406  0.70801457  0.58557210    -0.08700
C1052       C  0.34956292  0.67997717  0.60388473     0.30200
F1053       F  0.33332501  0.64838830  0.58394623    -0.19200
H1054       H  0.30933866  0.66876116  0.65169316     0.18500
H1055       H  0.41346077  0.76127220  0.59513018     0.18600
F1056       F  0.38580922  0.78371852  0.66240864    -0.19200
C1057       C  0.14363858  0.76261820  0.62223823    -0.20600
C1058       C  0.17934985  0.78454602  0.63347531    -0.08700
C1059       C  0.19485407  0.81405789  0.60761965     0.30200
C1060       C  0.17588082  0.82055632  0.57140339    -0.20600
C1061       C  0.14191600  0.79704353  0.55916434    -0.08700
C1062       C  0.12520431  0.76857256  0.58533784     0.30200
F1063       F  0.09189194  0.74564086  0.57475530    -0.19200
H1064       H  0.13091147  0.73981145  0.64136218     0.18500
H1065       H  0.18982938  0.84217410  0.55168849     0.18600
F1066       F  0.22993487  0.83533234  0.61610675    -0.19200
C1067       C  0.32938949  0.56239312  0.69242990    -0.20600
C1068       C  0.36578805  0.55089893  0.71152196    -0.08700
C1069       C  0.38334090  0.57579516  0.74053549     0.30200
C1070       C  0.36426678  0.61173519  0.74989228    -0.20600
C1071       C  0.32725379  0.62274815  0.73071655    -0.08700
C1072       C  0.30989336  0.59713801  0.70240246     0.30200
F1073       F  0.27322965  0.60495423  0.68468999    -0.19200
H1074       H  0.31437817  0.54331109  0.67085428     0.18500
H1075       H  0.37805307  0.63056076  0.77237215     0.18600
F1076       F  0.41852195  0.56532681  0.75968526    -0.19200
C1077       C  0.18978376  0.59396647  0.76870972    -0.20600
C1078       C  0.17846315  0.62901768  0.78747097    -0.08700
C1079       C  0.15774073  0.62610131  0.82341278     0.30200
C1080       C  0.15784030  0.59002200  0.84443184    -0.20600
C1081       C  0.17661782  0.55655965  0.82838853    -0.08700
C1082       C  0.18837504  0.55778200  0.78878313     0.30200
F1083       F  0.20503614  0.52542296  0.77175126    -0.19200
H1084       H  0.20495111  0.59538118  0.74055786     0.18500
H1085       H  0.14763572  0.58953528  0.87454348     0.18600
F1086       F  0.14250143  0.65910732  0.84031413    -0.19200
loop_ 
_geom_bond_atom_site_label_1 
_geom_bond_atom_site_label_2 
_geom_bond_distance 
_geom_bond_site_symmetry_2 
_ccdc_geom_bond_type 
O1            C9   1.251       .  A
O1          Co21   1.922       .  S
O2           C10   1.262       .  A
O2          Co22   1.973       .  S
O3           C11   1.272       .  A
O3          Co23   1.989       .  S
O4           C12   1.279       .  A
O4          Co24   2.029       .  S
O5           C11   1.275       .  A
O5          Co22   1.995       .  S
O6           C12   1.258       .  A
O6          Co21   1.952       .  S
O7           C10   1.265       .  A
O7          Co24   2.017       .  S
O8            C9   1.283       .  A
O8          Co23   2.063       .  S
C9         C1071   1.482       .  S
C10        C1038   1.486       .  S
C11        C1048   1.480       .  S
C12        C1011   1.457       .  S
O13          C26   1.263       .  A
O13         Co21   1.960       .  S
O14          C27   1.264       .  A
O14         Co22   1.997       .  S
O15          C28   1.263       .  A
O15         Co23   1.968       .  S
O16          C29   1.286       .  A
O16         Co24   1.993       .  S
O17          C29   1.290       .  A
O17         Co22   2.037       .  S
O18          C28   1.281       .  A
O18         Co21   2.062       .  S
O19          C26   1.293       .  A
O19         Co24   2.049       .  S
O20          C27   1.267       .  A
O20         Co23   1.991       .  S
Co21         O25   1.932       .  S
Co22         O25   2.026       .  S
Co23         O25   2.088       .  S
Co24         O25   2.117       .  S
C26        C1018   1.477       .  S
C27        C1058   1.492       .  S
C28        C1078   1.477       .  S
C29        C1028   1.478       .  S
O30          C38   1.254       .  A
O30         Co50   2.017       .  S
O31          C39   1.290       .  A
O31         Co51   2.078       .  S
O32          C40   1.298       .  A
O32         Co52   2.046       .  S
O33          C41   1.237       .  A
O33         Co53   1.947       .  S
O34          C40   1.285       .  A
O34         Co51   2.038       .  S
O35          C41   1.255       .  A
O35         Co50   2.035       .  S
O36          C39   1.255       .  A
O36         Co53   1.940       .  S
O37          C38   1.267       .  A
O37         Co52   2.007       .  S
C38         C998   1.473       .  S
C39         C951   1.497       .  S
C40         C938   1.495       .  S
C41         C968   1.463       .  S
O42          C55   1.266       .  A
O42         Co50   1.966       .  S
O43          C56   1.224       .  A
O43         Co51   1.926       .  S
O44          C57   1.289       .  A
O44         Co52   2.017       .  S
O45          C58   1.261       .  A
O45         Co53   2.060       .  S
O46          C58   1.232       .  A
O46         Co51   1.935       .  S
O47          C57   1.274       .  A
O47         Co50   1.950       .  S
O48          C55   1.285       .  A
O48         Co53   2.068       .  S
O49          C56   1.245       .  A
O49         Co52   2.066       .  S
Co50         O54   2.064       .  S
Co51         O54   2.000       .  S
Co52         O54   2.115       .  S
Co53         O54   2.057       .  S
C55         C978   1.504       .  S
C56         C928   1.485       .  S
C57         C991   1.472       .  S
C58         C958   1.489       .  S
O59          C67   1.277       .  A
O59         Co79   1.995       .  S
O60          C68   1.256       .  A
O60         Co80   2.032       .  S
O61          C69   1.242       .  A
O61         Co81   1.956       .  S
O62          C70   1.275       .  A
O62         Co82   2.000       .  S
O63          C69   1.261       .  A
O63         Co80   2.023       .  S
O64          C70   1.281       .  A
O64         Co79   2.013       .  S
O65          C68   1.235       .  A
O65         Co82   1.944       .  S
O66          C67   1.274       .  A
O66         Co81   1.987       .  S
C67         C908   1.475       .  S
C68         C868   1.484       .  S
C69         C861   1.486       .  S
C70         C898   1.490       .  S
O71          C84   1.268       .  A
O71         Co79   2.006       .  S
O72          C85   1.277       .  A
O72         Co80   2.024       .  S
O73          C86   1.269       .  A
O73         Co81   1.990       .  S
O74          C87   1.278       .  A
O74         Co82   1.965       .  S
O75          C87   1.273       .  A
O75         Co80   2.010       .  S
O76          C86   1.271       .  A
O76         Co79   1.999       .  S
O77          C84   1.266       .  A
O77         Co82   1.992       .  S
O78          C85   1.278       .  A
O78         Co81   1.965       .  S
Co79         O83   2.072       .  S
Co80         O83   2.228       .  S
Co81         O83   1.979       .  S
Co82         O83   1.964       .  S
C84         C888   1.487       .  S
C85         C848   1.498       .  S
C86         C918   1.478       .  S
C87         C878   1.471       .  S
C88         C818   1.493       .  S
C88          C89   1.430   1_556  A
C88          C93   1.427       .  A
C89         C811   1.515       .  S
C89          C90   1.432       .  A
C90         C838   1.493       .  S
C90          C91   1.422   1_545  A
C91         C828   1.492       .  S
C91          C92   1.415       .  A
C92         C798   1.493       .  S
C92          C93   1.415   1_564  A
C93         C788   1.503       .  S
N94          C98   1.355   1_565  A
N94          C95   1.366       .  A
N94         C841   1.457       .  S
C95         C858   1.489       .  S
C95          C96   1.386       .  A
C96          C97   1.365   1_565  A
C96          H99   1.083       .  S
C97          C98   1.378       .  A
C97         H100   1.083       .  S
C98         C778   1.473       .  S
N101        C105   1.375       .  A
N101        C102   1.381   1_554  A
N101        C808   1.464       .  S
C102        C948   1.501       .  S
C102        C103   1.385   1_556  A
C103        C104   1.354       .  A
C103        H106   1.082   1_554  S
C104        C105   1.380       .  A
C104        H107   1.083       .  S
C105        C768   1.492       .  S
N108        C112   1.362       .  A
N108        C109   1.357       .  A
N108        C791   1.456       .  S
C109        C761   1.476       .  S
C109        C110   1.385       .  A
C110        C111   1.363       .  A
C110        H113   1.083       .  S
C111        C112   1.380       .  A
C111        H114   1.082       .  S
C112       C1041   1.479   1_545  S
N115        C119   1.360       .  A
N115        C116   1.357       .  A
N115        C821   1.465       .  S
C116        C748   1.488       .  S
C116        C117   1.388       .  A
C117        C118   1.370       .  A
C117        H120   1.082       .  S
C118        C119   1.383       .  A
C118        H121   1.081       .  S
C119        C971   1.493       .  S
N122        C126   1.359       .  A
N122        C123   1.361       .  A
N122        C831   1.458       .  S
C123        C738   1.484       .  S
C123        C124   1.387       .  A
C124        C125   1.366       .  A
C124        H127   1.083       .  S
C125        C126   1.379       .  A
C125        H128   1.082       .  S
C126        C911   1.480       .  S
N129        C133   1.358       .  A
N129        C130   1.365   1_556  A
N129        C801   1.455       .  S
C130        C728   1.493       .  S
C130        C131   1.382   1_554  A
C131        C132   1.367       .  A
C131        H134   1.082       .  S
C132        C133   1.384       .  A
C132        H135   1.082       .  S
C133       C1008   1.473       .  S
C136        C698   1.490       .  S
C136        C137   1.428   1_554  A
C136        C141   1.421   1_655  A
C137        C711   1.501       .  S
C137        C138   1.422       .  A
C138        C721   1.502       .  S
C138        C139   1.423   1_655  A
C139        C668   1.500       .  S
C139        C140   1.432   1_556  A
C140        C678   1.492       .  S
C140        C141   1.420       .  A
C141        C688   1.513       .  S
N142        C146   1.364       .  A
N142        C143   1.356   1_554  A
N142        C681   1.461       .  S
C143       C1021   1.472       .  S
C143        C144   1.380       .  A
C144        C145   1.362   1_556  A
C144        H147   1.083       .  S
C145        C146   1.387       .  A
C145        H148   1.081       .  S
C146        C658   1.484       .  S
N149        C153   1.366       .  A
N149        C150   1.361       .  A
N149        C671   1.452       .  S
C150       C1081   1.484       .  S
C150        C151   1.385       .  A
C151        C152   1.366       .  A
C151        H154   1.083       .  S
C152        C153   1.381       .  A
C152        H155   1.082       .  S
C153        C648   1.486       .  S
N156        C160   1.369       .  A
N156        C157   1.360   1_455  A
N156        C691   1.463       .  S
C157        C871   1.484       .  S
C157        C158   1.382       .  A
C158        C159   1.366   1_655  A
C158        H161   1.083       .  S
C159        C160   1.384       .  A
C159        H162   1.083       .  S
C160        C641   1.496       .  S
N163        C167   1.366       .  A
N163        C164   1.366       .  A
N163        C701   1.466       .  S
C164        C628   1.490       .  S
C164        C165   1.384       .  A
C165        C166   1.368       .  A
C165        H168   1.083       .  S
C166        C167   1.381       .  A
C166        H169   1.082       .  S
C167        C901   1.494       .  S
N170        C174   1.363       .  A
N170        C171   1.356       .  A
N170        C718   1.467       .  S
C171        C618   1.474   1_655  S
C171        C172   1.376       .  A
C172        C173   1.366       .  A
C172        H175   1.082       .  S
C173        C174   1.389       .  A
C173        H176   1.084       .  S
C174        C931   1.487       .  S
N177        C181   1.365       .  A
N177        C178   1.360   1_556  A
N177        C708   1.458       .  S
C178        C608   1.493       .  S
C178        C179   1.388       .  A
C179        C180   1.364   1_554  A
C179        H182   1.082       .  S
C180        C181   1.381       .  A
C180        H183   1.083       .  S
C181        C961   1.485       .  S
C184        C588   1.506       .  S
C184        C185   1.423       .  A
C184        C189   1.427       .  A
C185        C598   1.516       .  S
C185        C186   1.426       .  A
C186        C558   1.478       .  S
C186        C187   1.425       .  A
C187        C551   1.511       .  S
C187        C188   1.426       .  A
C188        C568   1.505       .  S
C188        C189   1.427       .  A
C189        C578   1.491       .  S
N190        C194   1.375       .  A
N190        C191   1.374       .  A
N190        C601   1.476       .  S
C191        C981   1.500       .  S
C191        C192   1.381       .  A
C192        C193   1.363       .  A
C192        H195   1.083       .  S
C193        C194   1.385       .  A
C193        H196   1.081       .  S
C194        C541   1.513       .  S
N197        C201   1.372       .  A
N197        C198   1.373       .  A
N197        C548   1.470       .  S
C198        C531   1.481       .  S
C198        C199   1.378       .  A
C199        C200   1.357       .  A
C199        H202   1.082       .  S
C200        C201   1.384       .  A
C200        H203   1.083       .  S
C201       C1051   1.488       .  S
N204        C208   1.356       .  A
N204        C205   1.362       .  A
N204        C581   1.452       .  S
C205        C891   1.486       .  S
C205        C206   1.384       .  A
C206        C207   1.370       .  A
C206        H209   1.082       .  S
C207        C208   1.382       .  A
C207        H210   1.083       .  S
C208        C518   1.479       .  S
N211        C215   1.365       .  A
N211        C212   1.362       .  A
N211        C571   1.459       .  S
C212        C508   1.488       .  S
C212        C213   1.384       .  A
C213        C214   1.365       .  A
C213        H216   1.083       .  S
C214        C215   1.384       .  A
C214        H217   1.081       .  S
C215        C921   1.494       .  S
N218        C222   1.350       .  A
N218        C219   1.355       .  A
N218        C561   1.446       .  S
C219       C1068   1.477       .  S
C219        C220   1.380       .  A
C220        C221   1.374       .  A
C220        H223   1.082       .  S
C221        C222   1.387       .  A
C221        H224   1.083       .  S
C222        C501   1.473       .  S
N225        C229   1.367       .  A
N225        C226   1.360       .  A
N225        C591   1.460       .  S
C226        C988   1.488       .  S
C226        C227   1.384       .  A
C227        C228   1.367       .  A
C227        H230   1.083       .  S
C228        C229   1.386       .  A
C228        H231   1.082       .  S
C229        C491   1.498       .  S
C232        C468   1.493       .  S
C232        C233   1.425       .  A
C232        C237   1.418   1_465  A
C233        C478   1.504       .  S
C233        C234   1.430   1_455  A
C234        C428   1.505   1_655  S
C234        C235   1.434       .  A
C235        C441   1.505       .  S
C235        C236   1.424   1_565  A
C236        C448   1.489       .  S
C236        C237   1.420       .  A
C237        C458   1.506       .  S
N238        C242   1.371       .  A
N238        C239   1.361   1_655  A
N238        C461   1.458       .  S
C239        C418   1.482       .  S
C239        C240   1.379       .  A
C240        C241   1.365   1_455  A
C240        H243   1.083       .  S
C241        C242   1.386       .  A
C241        H244   1.082       .  S
C242        C941   1.504       .  S
N245        C249   1.360       .  A
N245        C246   1.359       .  A
N245        C471   1.457       .  S
C246        C411   1.480   1_565  S
C246        C247   1.377       .  A
C247        C248   1.367       .  A
C247        H250   1.082       .  S
C248        C249   1.388       .  A
C248        H251   1.081       .  S
C249       C1031   1.485       .  S
N252        C256   1.364       .  A
N252        C253   1.365       .  A
N252        C481   1.464       .  S
C253       C1061   1.487       .  S
C253        C254   1.379       .  A
C254        C255   1.367       .  A
C254        H257   1.082       .  S
C255        C256   1.386       .  A
C255        H258   1.082       .  S
C256        C398   1.492       .  S
N259        C263   1.362       .  A
N259        C260   1.357       .  A
N259        C451   1.456       .  S
C260        C391   1.479       .  S
C260        C261   1.377       .  A
C261        C262   1.366       .  A
C261        H264   1.082       .  S
C262        C263   1.387       .  A
C262        H265   1.080       .  S
C263       C1001   1.483       .  S
N266        C270   1.374   1_545  A
N266        C267   1.378       .  A
N266        C438   1.465       .  S
C267        C378   1.499       .  S
C267        C268   1.385       .  A
C268        C269   1.358       .  A
C268        H271   1.083       .  S
C269        C270   1.375   1_545  A
C269        H272   1.080   1_545  S
C270        C851   1.487       .  S
N273        C277   1.357       .  A
N273        C274   1.367   1_655  A
N273        C431   1.463   1_655  S
C274        C368   1.489       .  S
C274        C275   1.384   1_455  A
C275        C276   1.365       .  A
C275        H278   1.083       .  S
C276        C277   1.381       .  A
C276        H279   1.083       .  S
C277        C881   1.475       .  S
O280        C288   1.268       .  A
O280       Co300   1.978       .  S
O281        C289   1.299       .  A
O281       Co301   1.995       .  S
O282        C290   1.279       .  A
O282       Co302   2.015       .  S
O283        C291   1.257       .  A
O283       Co303   1.982       .  S
O284        C290   1.277       .  A
O284       Co301   1.993       .  S
O285        C291   1.263       .  A
O285       Co300   2.015       .  S
O286        C289   1.296       .  A
O286       Co303   1.969       .  S
O287        C288   1.271       .  A
O287       Co302   2.011       .  S
C288        C408   1.486       .  S
C289        C498   1.457       .  S
C290        C421   1.477       .  S
C291        C538   1.494       .  S
O292        C305   1.262       .  A
O292       Co300   1.966       .  S
O293        C306   1.279       .  A
O293       Co301   2.034       .  S
O294        C307   1.269       .  A
O294       Co302   1.988       .  S
O295        C308   1.240       .  A
O295       Co303   1.988       .  S
O296        C308   1.252       .  A
O296       Co301   2.039       .  S
O297        C307   1.272       .  A
O297       Co300   1.998       .  S
O298        C305   1.268       .  A
O298       Co303   2.006       .  S
O299        C306   1.264       .  A
O299       Co302   1.957       .  S
Co300       O304   2.037       .  S
Co301       O304   2.070       .  S
Co302       O304   2.008       .  S
Co303       O304   1.982       .  S
C305        C751   1.464       .  S
C306        C621   1.482       .  S
C307        C758   1.466       .  S
C308        C651   1.487       .  S
O309        C317   1.264       .  A
O309       Co329   1.975       .  S
O310        C318   1.282       .  A
O310       Co330   2.010       .  S
O311        C319   1.254       .  A
O311       Co331   1.946       .  S
O312        C320   1.274       .  A
O312       Co332   1.862       .  S
O313        C319   1.274       .  A
O313       Co330   2.014       .  S
O314        C320   1.308       .  A
O314       Co329   2.128       .  S
O315        C318   1.284       .  A
O315       Co332   2.002       .  S
O316        C317   1.267       .  A
O316       Co331   1.994       .  S
C317        C381   1.477       .  S
C318        C631   1.479       .  S
C319        C611   1.475       .  S
C320        C388   1.479       .  S
O321        C334   1.258       .  A
O321       Co329   1.963       .  S
O322        C335   1.282       .  A
O322       Co330   1.984       .  S
O323        C336   1.264       .  A
O323       Co331   1.946       .  S
O324        C337   1.263       .  A
O324       Co332   1.975       .  S
O325        C337   1.276       .  A
O325       Co330   2.006       .  S
O326        C336   1.285       .  A
O326       Co329   2.025       .  S
O327        C334   1.272       .  A
O327       Co332   2.068       .  S
O328        C335   1.289       .  A
O328       Co331   2.053       .  S
Co329       O333   2.118       .  S
Co330       O333   2.035       .  S
Co331       O333   1.927       .  S
Co332       O333   1.877       .  S
C334        C488   1.483       .  S
C335        C771   1.484       .  S
C336        C781   1.462       .  S
C337        C521   1.470       .  S
O338        C346   1.255       .  A
O338       Co358   2.050       .  S
O339        C347   1.283       .  A
O339       Co359   2.056       .  S
O340        C348   1.240       .  A
O340       Co360   1.939       .  S
O341        C349   1.264       .  A
O341       Co361   1.883       .  S
O342        C348   1.278       .  A
O342       Co359   2.087       .  S
O343        C349   1.298       .  A
O343       Co358   2.093       .  S
O344        C347   1.259       .  A
O344       Co361   1.971       .  S
O345        C346   1.233       .  A
O345       Co360   1.949       .  S
C346        C511   1.486       .  S
C347        C638   1.495       .  S
C348        C528   1.496       .  S
C349        C661   1.473       .  S
O350        C363   1.259       .  A
O350       Co358   1.881       .  S
O351        C364   1.241       .  A
O351       Co359   1.943       .  S
O352        C365   1.287       .  A
O352       Co360   2.072       .  S
O353        C366   1.262       .  A
O353       Co361   2.037       .  S
O354        C366   1.241       .  A
O354       Co359   1.952       .  S
O355        C365   1.259       .  A
O355       Co358   1.958       .  S
O356        C363   1.302       .  A
O356       Co361   2.120       .  S
O357        C364   1.276       .  A
O357       Co360   2.075       .  S
Co358       O362   2.015       .  S
Co359       O362   2.021       .  S
Co360       O362   2.014       .  S
Co361       O362   2.020       .  S
C363        C731   1.488       .  S
C364        C401   1.494       .  S
C365        C741   1.493       .  S
C366        C371   1.487       .  S
C367        C368   1.397       .  A
C367        C372   1.400       .  A
C367        H374   1.082       .  S
C368        C369   1.418       .  A
C369        C370   1.400       .  A
C369        F376   1.357       .  S
C370        C371   1.400       .  A
C370        H375   1.084       .  S
C371        C372   1.416       .  A
C372        F373   1.357       .  S
C377        C378   1.417       .  A
C377        C382   1.404       .  A
C377        H384   1.084       .  S
C378        C379   1.405       .  A
C379        C380   1.399       .  A
C379        F386   1.356       .  S
C380        C381   1.409       .  A
C380        H385   1.083       .  S
C381        C382   1.399       .  A
C382        F383   1.358       .  S
C387        C388   1.406       .  A
C387        C392   1.393       .  A
C387        H394   1.083       .  S
C388        C389   1.408       .  A
C389        C390   1.399       .  A
C389        F396   1.357       .  S
C390        C391   1.405       .  A
C390        H395   1.082       .  S
C391        C392   1.403       .  A
C392        F393   1.358       .  S
C397        C398   1.397       .  A
C397        C402   1.401       .  A
C397        H404   1.083       .  S
C398        C399   1.416       .  A
C399        C400   1.404       .  A
C399        F406   1.357       .  S
C400        C401   1.401       .  A
C400        H405   1.081       .  S
C401        C402   1.419       .  A
C402        F403   1.357       .  S
C407        C408   1.407       .  A
C407        C412   1.399       .  A
C407        H414   1.083       .  S
C408        C409   1.412       .  A
C409        C410   1.397       .  A
C409        F416   1.357       .  S
C410        C411   1.402       .  A
C410        H415   1.083       .  S
C411        C412   1.406       .  A
C412        F413   1.357       .  S
C417        C418   1.404       .  A
C417        C422   1.402       .  A
C417        H424   1.083       .  S
C418        C419   1.403       .  A
C419        C420   1.404       .  A
C419        F426   1.356       .  S
C420        C421   1.404       .  A
C420        H425   1.078       .  S
C421        C422   1.407       .  A
C422        F423   1.357       .  S
C427        C428   1.405   1_655  A
C427        C432   1.405       .  A
C427        H434   1.082       .  S
C428        C429   1.407       .  A
C429        C430   1.406       .  A
C429        F436   1.355       .  S
C430        C431   1.414       .  A
C430        H435   1.081       .  S
C431        C432   1.414   1_455  A
C432        F433   1.355       .  S
C437        C438   1.413   1_565  A
C437        C442   1.410       .  A
C437        H444   1.080       .  S
C438        C439   1.416       .  A
C439        C440   1.405       .  A
C439        F446   1.355       .  S
C440        C441   1.403   1_545  A
C440        H445   1.083       .  S
C441        C442   1.406       .  A
C442        F443   1.357       .  S
C447        C448   1.395       .  A
C447        C452   1.396       .  A
C447        H454   1.083       .  S
C448        C449   1.406       .  A
C449        C450   1.403       .  A
C449        F456   1.357       .  S
C450        C451   1.408       .  A
C450        H455   1.082       .  S
C451        C452   1.422       .  A
C452        F453   1.355       .  S
C457        C458   1.403       .  A
C457        C462   1.407       .  A
C457        H464   1.083       .  S
C458        C459   1.406       .  A
C459        C460   1.406       .  A
C459        F466   1.357   1_655  S
C460        C461   1.409       .  A
C460        H465   1.082   1_655  S
C461        C462   1.417       .  A
C462        F463   1.356       .  S
C467        C468   1.397   1_545  A
C467        C472   1.397   1_545  A
C467        H474   1.084       .  S
C468        C469   1.406       .  A
C469        C470   1.406       .  A
C469        F476   1.357   1_455  S
C470        C471   1.409       .  A
C470        H475   1.082       .  S
C471        C472   1.421       .  A
C472        F473   1.356   1_565  S
C477        C478   1.407       .  A
C477        C482   1.412       .  A
C477        H484   1.083       .  S
C478        C479   1.402       .  A
C479        C480   1.400       .  A
C479        F486   1.357       .  S
C480        C481   1.416       .  A
C480        H485   1.082       .  S
C481        C482   1.413       .  A
C482        F483   1.354       .  S
C487        C488   1.404       .  A
C487        C492   1.401       .  A
C487        H494   1.065       .  S
C488        C489   1.401       .  A
C489        C490   1.402       .  A
C489        F496   1.358       .  S
C490        C491   1.417       .  A
C490        H495   1.078       .  S
C491        C492   1.404       .  A
C492        F493   1.356       .  S
C497        C498   1.397       .  A
C497        C502   1.393       .  A
C497        H504   1.084       .  S
C498        C499   1.407       .  A
C499        C500   1.399       .  A
C499        F506   1.357       .  S
C500        C501   1.398       .  A
C500        H505   1.083       .  S
C501        C502   1.410       .  A
C502        F503   1.358       .  S
C507        C508   1.414       .  A
C507        C512   1.403       .  A
C507        H514   1.084       .  S
C508        C509   1.398       .  A
C509        C510   1.398       .  A
C509        F516   1.356       .  S
C510        C511   1.413       .  A
C510        H515   1.084       .  S
C511        C512   1.403       .  A
C512        F513   1.357       .  S
C517        C518   1.400       .  A
C517        C522   1.395       .  A
C517        H524   1.083       .  S
C518        C519   1.412       .  A
C519        C520   1.399       .  A
C519        F526   1.357       .  S
C520        C521   1.398       .  A
C520        H525   1.083       .  S
C521        C522   1.408       .  A
C522        F523   1.358       .  S
C527        C528   1.418       .  A
C527        C532   1.399       .  A
C527        H534   1.083       .  S
C528        C529   1.401       .  A
C529        C530   1.407       .  A
C529        F536   1.356       .  S
C530        C531   1.414       .  A
C530        H535   1.084       .  S
C531        C532   1.395       .  A
C532        F533   1.357       .  S
C537        C538   1.410       .  A
C537        C542   1.408       .  A
C537        H544   1.082       .  S
C538        C539   1.402       .  A
C539        C540   1.407       .  A
C539        F546   1.357       .  S
C540        C541   1.417       .  A
C540        H545   1.082       .  S
C541        C542   1.409       .  A
C542        F543   1.357       .  S
C547        C548   1.414       .  A
C547        C552   1.415       .  A
C547        H554   1.080       .  S
C548        C549   1.419       .  A
C549        C550   1.401       .  A
C549        F556   1.355       .  S
C550        C551   1.399       .  A
C550        H555   1.082       .  S
C551        C552   1.409       .  A
C552        F553   1.357       .  S
C557        C558   1.402       .  A
C557        C562   1.403       .  A
C557        H564   1.083       .  S
C558        C559   1.399       .  A
C559        C560   1.391       .  A
C559        F566   1.357       .  S
C560        C561   1.408       .  A
C560        H565   1.082       .  S
C561        C562   1.410       .  A
C562        F563   1.355       .  S
C567        C568   1.408       .  A
C567        C572   1.410       .  A
C567        H574   1.083       .  S
C568        C569   1.405       .  A
C569        C570   1.399       .  A
C569        F576   1.355       .  S
C570        C571   1.412       .  A
C570        H575   1.082       .  S
C571        C572   1.410       .  A
C572        F573   1.355       .  S
C577        C578   1.401       .  A
C577        C582   1.395       .  A
C577        H584   1.082       .  S
C578        C579   1.404       .  A
C579        C580   1.405       .  A
C579        F586   1.357       .  S
C580        C581   1.412       .  A
C580        H585   1.078       .  S
C581        C582   1.411       .  A
C582        F583   1.357       .  S
C587        C588   1.408       .  A
C587        C592   1.411       .  A
C587        H594   1.082       .  S
C588        C589   1.405       .  A
C589        C590   1.401       .  A
C589        F596   1.357       .  S
C590        C591   1.413       .  A
C590        H595   1.082       .  S
C591        C592   1.410       .  A
C592        F593   1.355       .  S
C597        C598   1.403       .  A
C597        C602   1.411       .  A
C597        H604   1.083       .  S
C598        C599   1.407       .  A
C599        C600   1.410       .  A
C599        F606   1.357       .  S
C600        C601   1.415       .  A
C600        H605   1.079       .  S
C601        C602   1.426       .  A
C602        F603   1.355       .  S
C607        C608   1.412       .  A
C607        C612   1.410       .  A
C607        H614   1.075       .  S
C608        C609   1.411       .  A
C609        C610   1.378       .  A
C609        F616   1.356       .  S
C610        C611   1.396       .  A
C610        H615   1.080       .  S
C611        C612   1.407       .  A
C612        F613   1.358       .  S
C617        C618   1.406       .  A
C617        C622   1.402       .  A
C617        H624   1.083       .  S
C618        C619   1.398       .  A
C619        C620   1.391       .  A
C619        F626   1.358       .  S
C620        C621   1.410       .  A
C620        H625   1.083       .  S
C621        C622   1.407       .  A
C622        F623   1.357       .  S
C627        C628   1.403       .  A
C627        C632   1.407       .  A
C627        H634   1.079       .  S
C628        C629   1.407       .  A
C629        C630   1.401       .  A
C629        F636   1.357       .  S
C630        C631   1.405       .  A
C630        H635   1.084       .  S
C631        C632   1.405       .  A
C632        F633   1.355       .  S
C637        C638   1.416       .  A
C637        C642   1.402       .  A
C637        H644   1.080       .  S
C638        C639   1.403       .  A
C639        C640   1.403       .  A
C639        F646   1.357       .  S
C640        C641   1.416       .  A
C640        H645   1.082       .  S
C641        C642   1.399       .  A
C642        F643   1.357       .  S
C647        C648   1.399       .  A
C647        C652   1.394       .  A
C647        H654   1.083       .  S
C648        C649   1.412       .  A
C649        C650   1.405       .  A
C649        F656   1.357       .  S
C650        C651   1.404       .  A
C650        H655   1.083       .  S
C651        C652   1.413       .  A
C652        F653   1.355       .  S
C657        C658   1.402       .  A
C657        C662   1.387       .  A
C657        H664   1.081       .  S
C658        C659   1.412       .  A
C659        C660   1.398       .  A
C659        F666   1.357       .  S
C660        C661   1.401       .  A
C660        H665   1.083       .  S
C661        C662   1.410       .  A
C662        F663   1.358       .  S
C667        C668   1.408       .  A
C667        C672   1.409       .  A
C667        H674   1.083       .  S
C668        C669   1.403       .  A
C669        C670   1.396       .  A
C669        F676   1.357       .  S
C670        C671   1.408       .  A
C670        H675   1.082       .  S
C671        C672   1.410       .  A
C672        F673   1.355       .  S
C677        C678   1.400       .  A
C677        C682   1.398       .  A
C677        H684   1.080       .  S
C678        C679   1.400   1_554  A
C679        C680   1.400       .  A
C679        F686   1.358       .  S
C680        C681   1.415   1_556  A
C680        H685   1.061       .  S
C681        C682   1.415       .  A
C682        F683   1.356       .  S
C687        C688   1.408       .  A
C687        C692   1.413       .  A
C687        H694   1.083       .  S
C688        C689   1.406       .  A
C689        C690   1.406       .  A
C689        F696   1.357       .  S
C690        C691   1.415       .  A
C690        H695   1.082       .  S
C691        C692   1.411       .  A
C692        F693   1.356       .  S
C697        C698   1.395       .  A
C697        C702   1.399       .  A
C697        H704   1.083       .  S
C698        C699   1.401       .  A
C699        C700   1.402       .  A
C699        F706   1.357       .  S
C700        C701   1.415       .  A
C700        H705   1.079       .  S
C701        C702   1.425       .  A
C702        F703   1.352       .  S
C707        C708   1.414       .  A
C707        C712   1.396       .  A
C707        H714   1.082       .  S
C708        C709   1.408       .  A
C709        C710   1.412       .  A
C709        F716   1.356       .  S
C710        C711   1.410       .  A
C710        H715   1.083       .  S
C711        C712   1.401       .  A
C712        F713   1.357       .  S
C717        C718   1.419   1_455  A
C717        C722   1.398       .  A
C717        H724   1.081       .  S
C718        C719   1.413       .  A
C719        C720   1.412       .  A
C719        F726   1.356       .  S
C720        C721   1.408       .  A
C720        H725   1.083       .  S
C721        C722   1.400   1_655  A
C722        F723   1.357       .  S
C727        C728   1.414       .  A
C727        C732   1.407       .  A
C727        H734   1.082       .  S
C728        C729   1.405       .  A
C729        C730   1.392       .  A
C729        F736   1.357       .  S
C730        C731   1.410       .  A
C730        H735   1.083       .  S
C731        C732   1.404       .  A
C732        F733   1.357       .  S
C737        C738   1.412       .  A
C737        C742   1.405       .  A
C737        H744   1.084       .  S
C738        C739   1.397       .  A
C739        C740   1.399       .  A
C739        F746   1.357       .  S
C740        C741   1.415       .  A
C740        H745   1.083       .  S
C741        C742   1.405       .  A
C742        F743   1.357       .  S
C747        C748   1.412       .  A
C747        C752   1.398       .  A
C747        H754   1.083       .  S
C748        C749   1.401       .  A
C749        C750   1.398       .  A
C749        F756   1.354       .  S
C750        C751   1.405       .  A
C750        H755   1.083       .  S
C751        C752   1.401       .  A
C752        F753   1.358       .  S
C757        C758   1.405       .  A
C757        C762   1.401       .  A
C757        H764   1.082       .  S
C758        C759   1.405       .  A
C759        C760   1.399       .  A
C759        F766   1.358       .  S
C760        C761   1.406       .  A
C760        H765   1.083       .  S
C761        C762   1.396       .  A
C762        F763   1.351       .  S
C767        C768   1.402       .  A
C767        C772   1.408       .  A
C767        H774   1.082       .  S
C768        C769   1.414       .  A
C769        C770   1.403       .  A
C769        F776   1.359       .  S
C770        C771   1.402       .  A
C770        H775   1.083       .  S
C771        C772   1.406       .  A
C772        F773   1.354       .  S
C777        C778   1.398       .  A
C777        C782   1.390       .  A
C777        H784   1.084       .  S
C778        C779   1.411       .  A
C779        C780   1.398       .  A
C779        F786   1.358       .  S
C780        C781   1.397       .  A
C780        H785   1.083       .  S
C781        C782   1.409       .  A
C782        F783   1.358       .  S
C787        C788   1.407       .  A
C787        C792   1.407       .  A
C787        H794   1.082       .  S
C788        C789   1.403       .  A
C789        C790   1.402       .  A
C789        F796   1.357   1_545  S
C790        C791   1.414       .  A
C790        H795   1.082   1_545  S
C791        C792   1.409       .  A
C792        F793   1.356       .  S
C797        C798   1.402   1_556  A
C797        C802   1.402       .  A
C797        H804   1.083       .  S
C798        C799   1.401       .  A
C799        C800   1.399       .  A
C799        F806   1.356       .  S
C800        C801   1.411   1_554  A
C800        H805   1.082       .  S
C801        C802   1.414       .  A
C802        F803   1.354       .  S
C807        C808   1.410       .  A
C807        C812   1.409       .  A
C807        H814   1.081       .  S
C808        C809   1.414       .  A
C809        C810   1.410       .  A
C809        F816   1.356   1_554  S
C810        C811   1.407       .  A
C810        H815   1.082   1_554  S
C811        C812   1.410       .  A
C812        F813   1.357       .  S
C817        C818   1.401       .  A
C817        C822   1.402       .  A
C817        H824   1.082       .  S
C818        C819   1.403       .  A
C819        C820   1.399       .  A
C819        F826   1.357       .  S
C820        C821   1.413       .  A
C820        H825   1.075       .  S
C821        C822   1.420       .  A
C822        F823   1.355       .  S
C827        C828   1.405       .  A
C827        C832   1.407       .  A
C827        H834   1.083       .  S
C828        C829   1.399       .  A
C829        C830   1.396       .  A
C829        F836   1.357       .  S
C830        C831   1.416       .  A
C830        H835   1.082       .  S
C831        C832   1.410       .  A
C832        F833   1.355       .  S
C837        C838   1.403   1_565  A
C837        C842   1.401       .  A
C837        H844   1.083       .  S
C838        C839   1.401       .  A
C839        C840   1.405       .  A
C839        F846   1.357       .  S
C840        C841   1.414   1_545  A
C840        H845   1.079       .  S
C841        C842   1.414       .  A
C842        F843   1.356       .  S
C847        C848   1.415       .  A
C847        C852   1.406       .  A
C847        H854   1.083       .  S
C848        C849   1.406       .  A
C849        C850   1.404       .  A
C849        F856   1.357       .  S
C850        C851   1.410       .  A
C850        H855   1.084       .  S
C851        C852   1.402       .  A
C852        F853   1.357       .  S
C857        C858   1.398       .  A
C857        C862   1.404       .  A
C857        H864   1.083       .  S
C858        C859   1.415       .  A
C859        C860   1.401       .  A
C859        F866   1.357       .  S
C860        C861   1.400       .  A
C860        H865   1.084       .  S
C861        C862   1.416       .  A
C862        F863   1.356       .  S
C867        C868   1.402       .  A
C867        C872   1.404       .  A
C867        H874   1.083       .  S
C868        C869   1.414       .  A
C869        C870   1.400       .  A
C869        F876   1.358       .  S
C870        C871   1.398       .  A
C870        H875   1.084       .  S
C871        C872   1.413       .  A
C872        F873   1.356       .  S
C877        C878   1.399       .  A
C877        C882   1.400       .  A
C877        H884   1.084       .  S
C878        C879   1.413       .  A
C879        C880   1.394       .  A
C879        F886   1.359       .  S
C880        C881   1.395       .  A
C880        H885   1.084       .  S
C881        C882   1.410       .  A
C882        F883   1.354       .  S
C887        C888   1.405       .  A
C887        C892   1.404       .  A
C887        H894   1.083       .  S
C888        C889   1.413       .  A
C889        C890   1.392       .  A
C889        F896   1.358       .  S
C890        C891   1.400       .  A
C890        H895   1.082       .  S
C891        C892   1.411       .  A
C892        F893   1.357       .  S
C897        C898   1.410       .  A
C897        C902   1.398       .  A
C897        H904   1.083       .  S
C898        C899   1.407       .  A
C899        C900   1.405       .  A
C899        F906   1.357       .  S
C900        C901   1.410       .  A
C900        H905   1.083       .  S
C901        C902   1.405       .  A
C902        F903   1.357       .  S
C907        C908   1.402       .  A
C907        C912   1.398       .  A
C907        H914   1.083       .  S
C908        C909   1.410       .  A
C909        C910   1.391       .  A
C909        F916   1.359       .  S
C910        C911   1.402       .  A
C910        H915   1.083       .  S
C911        C912   1.408       .  A
C912        F913   1.357       .  S
C917        C918   1.403       .  A
C917        C922   1.391       .  A
C917        H924   1.080       .  S
C918        C919   1.402       .  A
C919        C920   1.404       .  A
C919        F926   1.357       .  S
C920        C921   1.415       .  A
C920        H925   1.082       .  S
C921        C922   1.407       .  A
C922        F923   1.356       .  S
C927        C928   1.413       .  A
C927        C932   1.397       .  A
C927        H934   1.084       .  S
C928        C929   1.403       .  A
C929        C930   1.407       .  A
C929        F936   1.357       .  S
C930        C931   1.416       .  A
C930        H935   1.083       .  S
C931        C932   1.397       .  A
C932        F933   1.357       .  S
C937        C938   1.408       .  A
C937        C942   1.408       .  A
C937        H944   1.082       .  S
C938        C939   1.405       .  A
C939        C940   1.406       .  A
C939        F946   1.357       .  S
C940        C941   1.414       .  A
C940        H945   1.083       .  S
C941        C942   1.409       .  A
C942        F943   1.357       .  S
C947        C948   1.398       .  A
C947        C952   1.401       .  A
C947        H954   1.082       .  S
C948        C949   1.421       .  A
C949        C950   1.406       .  A
C949        F956   1.358       .  S
C950        C951   1.398       .  A
C950        H955   1.083       .  S
C951        C952   1.423       .  A
C952        F953   1.358       .  S
C957        C958   1.410       .  A
C957        C962   1.399       .  A
C957        H964   1.084       .  S
C958        C959   1.409       .  A
C959        C960   1.410       .  A
C959        F966   1.357       .  S
C960        C961   1.410       .  A
C960        H965   1.084       .  S
C961        C962   1.401       .  A
C962        F963   1.358       .  S
C967        C968   1.400       .  A
C967        C972   1.387       .  A
C967        H974   1.080       .  S
C968        C969   1.400       .  A
C969        C970   1.404       .  A
C969        F976   1.357       .  S
C970        C971   1.413       .  A
C970        H975   1.081       .  S
C971        C972   1.410       .  A
C972        F973   1.357       .  S
C977        C978   1.408       .  A
C977        C982   1.408       .  A
C977        H984   1.083       .  S
C978        C979   1.412       .  A
C979        C980   1.410       .  A
C979        F986   1.355       .  S
C980        C981   1.405       .  A
C980        H985   1.082       .  S
C981        C982   1.413       .  A
C982        F983   1.358       .  S
C987        C988   1.400       .  A
C987        C992   1.403       .  A
C987        H994   1.083       .  S
C988        C989   1.413       .  A
C989        C990   1.399       .  A
C989        F996   1.358       .  S
C990        C991   1.400       .  A
C990        H995   1.084       .  S
C991        C992   1.407       .  A
C992        F993   1.353       .  S
C997        C998   1.401       .  A
C997       C1002   1.401       .  A
C997       H1004   1.084       .  S
C998        C999   1.404       .  A
C999       C1000   1.402       .  A
C999       F1006   1.354       .  S
C1000      C1001   1.404       .  A
C1000      H1005   1.083       .  S
C1001      C1002   1.411       .  A
C1002      F1003   1.356       .  S
C1007      C1008   1.405       .  A
C1007      C1012   1.393       .  A
C1007      H1014   1.083       .  S
C1008      C1009   1.402       .  A
C1009      C1010   1.400       .  A
C1009      F1016   1.355       .  S
C1010      C1011   1.401       .  A
C1010      H1015   1.080       .  S
C1011      C1012   1.398       .  A
C1012      F1013   1.358       .  S
C1017      C1018   1.401       .  A
C1017      C1022   1.407       .  A
C1017      H1024   1.083       .  S
C1018      C1019   1.417       .  A
C1019      C1020   1.381       .  A
C1019      F1026   1.355       .  S
C1020      C1021   1.387       .  A
C1020      H1025   1.083       .  S
C1021      C1022   1.414       .  A
C1022      F1023   1.357       .  S
C1027      C1028   1.404       .  A
C1027      C1032   1.405       .  A
C1027      H1034   1.081       .  S
C1028      C1029   1.407       .  A
C1029      C1030   1.401       .  A
C1029      F1036   1.358       .  S
C1030      C1031   1.407       .  A
C1030      H1035   1.084       .  S
C1031      C1032   1.403       .  A
C1032      F1033   1.356       .  S
C1037      C1038   1.406       .  A
C1037      C1042   1.397       .  A
C1037      H1044   1.083       .  S
C1038      C1039   1.410       .  A
C1039      C1040   1.401       .  A
C1039      F1046   1.356       .  S
C1040      C1041   1.405       .  A
C1040      H1045   1.083       .  S
C1041      C1042   1.405       .  A
C1042      F1043   1.357       .  S
C1047      C1048   1.408       .  A
C1047      C1052   1.392       .  A
C1047      H1054   1.082       .  S
C1048      C1049   1.402       .  A
C1049      C1050   1.403       .  A
C1049      F1056   1.357       .  S
C1050      C1051   1.414       .  A
C1050      H1055   1.084       .  S
C1051      C1052   1.403       .  A
C1052      F1053   1.357       .  S
C1057      C1058   1.407       .  A
C1057      C1062   1.406       .  A
C1057      H1064   1.083       .  S
C1058      C1059   1.414       .  A
C1059      C1060   1.395       .  A
C1059      F1066   1.357       .  S
C1060      C1061   1.400       .  A
C1060      H1065   1.083       .  S
C1061      C1062   1.411       .  A
C1062      F1063   1.357       .  S
C1067      C1068   1.401       .  A
C1067      C1072   1.384       .  A
C1067      H1074   1.083       .  S
C1068      C1069   1.407       .  A
C1069      C1070   1.407       .  A
C1069      F1076   1.359       .  S
C1070      C1071   1.414       .  A
C1070      H1075   1.083       .  S
C1071      C1072   1.402       .  A
C1072      F1073   1.356       .  S
C1077      C1078   1.400       .  A
C1077      C1082   1.395       .  A
C1077      H1084   1.084       .  S
C1078      C1079   1.406       .  A
C1079      C1080   1.408       .  A
C1079      F1086   1.356       .  S
C1080      C1081   1.404       .  A
C1080      H1085   1.083       .  S
C1081      C1082   1.409       .  A
C1082      F1083   1.358       .  S
