geometry optimzed in LAMMPS
_audit_creation_date              2020-11-30 
_audit_creation_method            'lammps2cif' 
_symmetry_space_group_name_H-M    'P1' 
_symmetry_Int_Tables_number       1 
_symmetry_cell_setting            triclinic 
loop_ 
_symmetry_equiv_pos_as_xyz 
  x,y,z 
_cell_length_a                    31.77334293 
_cell_length_b                    32.06903877966768 
_cell_length_c                    32.03606785062748 
_cell_angle_alpha                 89.78963777150057 
_cell_angle_beta                  89.84105041588704 
_cell_angle_gamma                 89.94193196960481 
loop_ 
_atom_site_label 
_atom_site_type_symbol 
_atom_site_fract_x 
_atom_site_fract_y 
_atom_site_fract_z 
_atom_site_charge 
C1          C  0.32912669  0.66027060  0.17925092     0.85800
C2          C  0.36251784  0.63270274  0.20290390    -0.54500
C3          C  0.38701730  0.60970926  0.17665561     0.08700
C4          C  0.37534510  0.61543574  0.13094446     0.19600
C5          C  0.35602796  0.68598675  0.14717885    -0.55200
C6          C  0.37954590  0.66167809  0.12123400     0.08800
C7          C  0.30376360  0.62854914  0.15195920    -0.54700
C8          C  0.32877041  0.60502904  0.12650683     0.09400
H9          H  0.36792870  0.63192702  0.23618955     0.13900
H10         H  0.39542166  0.59625132  0.11049871    -0.00400
H11         H  0.35561028  0.71976339  0.14488655     0.14200
H12         H  0.26973140  0.62570741  0.15246290     0.14000
C13         C  0.61911537  0.38257591  0.16506142     0.85800
C14         C  0.64482328  0.41571796  0.13927734    -0.54500
C15         C  0.61986075  0.44188399  0.11622362     0.08700
C16         C  0.57312090  0.43135673  0.12017486     0.19600
C17         C  0.58637553  0.40849239  0.19053318    -0.55200
C18         C  0.56207480  0.43377832  0.16639403     0.08800
C19         C  0.59193643  0.35955440  0.13095382    -0.54700
C20         C  0.56800468  0.38601348  0.10738962     0.09400
H21         H  0.67884943  0.41849254  0.14007645     0.13900
H22         H  0.55309671  0.45216521  0.10125376    -0.00400
H23         H  0.58262803  0.40641373  0.22416939     0.14200
H24         H  0.59161438  0.32643816  0.12484094     0.14000
C25         C  0.61227100  0.67038287  0.17217620     0.85800
C26         C  0.63858358  0.64523436  0.13921606    -0.54500
C27         C  0.61480775  0.61917839  0.11539430     0.08700
C28         C  0.56834358  0.62070586  0.12693866     0.19600
C29         C  0.57663381  0.69238713  0.14694424    -0.55200
C30         C  0.55442952  0.66587423  0.12296583     0.08800
C31         C  0.58779132  0.63598429  0.19785601    -0.54700
C32         C  0.56487782  0.60952075  0.17318724     0.09400
H33         H  0.67238251  0.64825265  0.13523095     0.13900
H34         H  0.54925814  0.60017786  0.10700737    -0.00400
H35         H  0.56638006  0.72431714  0.14965436     0.14200
H36         H  0.58861069  0.63323859  0.23161459     0.14000
C37         C  0.33493082  0.37849285  0.16536594     0.85800
C38         C  0.36747654  0.35704871  0.13542077    -0.54500
C39         C  0.39117443  0.38465751  0.11355307     0.08700
C40         C  0.37930966  0.42985452  0.12150993     0.19600
C41         C  0.36192143  0.40969395  0.19187794    -0.55200
C42         C  0.38485974  0.43704761  0.16817749     0.08800
C43         C  0.30849166  0.40702234  0.13523851    -0.54700
C44         C  0.33248732  0.43366729  0.11188572     0.09400
H45         H  0.37179997  0.32433431  0.12965053     0.13900
H46         H  0.39834693  0.45150653  0.10243764    -0.00400
H47         H  0.36234097  0.41001129  0.22575115     0.14200
H48         H  0.27451530  0.40535975  0.13221240     0.14000
O49         O  0.51681087  0.56638245  0.21775842    -0.72500
O50         O  0.43502261  0.47469608  0.21444337    -0.72700
O51         O  0.52193642  0.48011972  0.21356293    -0.72600
O52         O  0.42968466  0.56050058  0.21885679    -0.72600
O53         O  0.44705032  0.57441983  0.15499246    -0.72500
O54         O  0.50343987  0.47321085  0.14898619    -0.72600
O55         O  0.42406359  0.49595489  0.15128390    -0.72500
O56         O  0.52651722  0.55144141  0.15277002    -0.72700
V57         V  0.47594124  0.52040783  0.21661305     1.35200
V58         V  0.47527455  0.52373331  0.15302531     1.35200
C59         C  0.53617019  0.57374020  0.18345979     0.76700
C60         C  0.41479241  0.47097833  0.18021023     0.76800
C61         C  0.52724357  0.46236134  0.17833830     0.76700
C62         C  0.42330944  0.58157815  0.18560138     0.76600
C63         C  0.32705599  0.39065617  0.88525579     0.85800
C64         C  0.35537925  0.36523144  0.91646460    -0.54500
C65         C  0.38091398  0.38981378  0.94046221     0.08700
C66         C  0.37566808  0.43604184  0.93066402     0.19600
C67         C  0.30339595  0.42359678  0.91271274    -0.55200
C68         C  0.32937241  0.44671543  0.93680137     0.08800
C69         C  0.35927678  0.41803440  0.85964397    -0.54700
C70         C  0.38544772  0.44117206  0.88427534     0.09400
H71         H  0.35512536  0.33147006  0.91888182     0.13900
H72         H  0.39583509  0.45591342  0.95022920    -0.00400
H73         H  0.27023616  0.43087139  0.91166385     0.14200
H74         H  0.36147816  0.41844455  0.82584383     0.14000
C75         C  0.62031579  0.39345227  0.88352136     0.85800
C76         C  0.59247227  0.42566367  0.85882109    -0.54500
C77         C  0.56737597  0.44951726  0.88412717     0.08700
C78         C  0.57252910  0.43854541  0.93024452     0.19600
C79         C  0.64469622  0.42072682  0.91633711    -0.55200
C80         C  0.61882226  0.44373465  0.94112918     0.08800
C81         C  0.58826994  0.36789689  0.91051586    -0.54700
C82         C  0.56255255  0.39225031  0.93418038     0.09400
H83         H  0.59253133  0.42869684  0.82507245     0.13900
H84         H  0.55244352  0.45776239  0.95069609    -0.00400
H85         H  0.67830247  0.42161096  0.92118399     0.14200
H86         H  0.58571390  0.33415131  0.91001438     0.14000
C87         C  0.61086792  0.67552628  0.89171332     0.85800
C88         C  0.58282836  0.69754072  0.92572856    -0.54500
C89         C  0.55931451  0.67025061  0.94874103     0.08700
C90         C  0.56586639  0.62506549  0.93605003     0.19600
C91         C  0.63709780  0.64334469  0.91793913    -0.55200
C92         C  0.61286069  0.61644684  0.94056379     0.08800
C93         C  0.57941417  0.64836530  0.86583673    -0.54700
C94         C  0.55541832  0.62226701  0.88977573     0.09400
H95         H  0.58291287  0.73020723  0.93363052     0.13900
H96         H  0.54655568  0.60353052  0.95500747    -0.00400
H97         H  0.67123435  0.64207767  0.91834122     0.14200
H98         H  0.57630707  0.65027776  0.83215152     0.14000
C99         C  0.32943967  0.67271686  0.89178885     0.85800
C100        C  0.30308594  0.64450873  0.92258149    -0.54500
C101        C  0.32736060  0.61808987  0.94616094     0.08700
C102        C  0.37402362  0.62148522  0.93556303     0.19600
C103        C  0.36220009  0.69408049  0.92123969    -0.55200
C104        C  0.38572343  0.66664261  0.94312344     0.08800
C105        C  0.35618109  0.64110963  0.86525820    -0.54700
C106        C  0.37911369  0.61378388  0.88891923     0.09400
H107        H  0.26920081  0.64673121  0.92629266     0.13900
H108        H  0.39343204  0.60007920  0.95447951    -0.00400
H109        H  0.36668878  0.72662328  0.92737530     0.14200
H110        H  0.35658220  0.64061874  0.83138368     0.14000
O111        O  0.28541682  0.48306713  0.07431898    -0.72500
O112        O  0.28233468  0.56920868  0.98724230    -0.72700
O113        O  0.28436237  0.48344688  0.98787959    -0.72600
O114        O  0.28350150  0.56905075  0.07448677    -0.72600
O115        O  0.34870743  0.55153128  0.08232959    -0.72500
O116        O  0.34871360  0.50312374  0.97750182    -0.72600
O117        O  0.34691659  0.58006254  0.00509007    -0.72500
O118        O  0.35010693  0.47505090  0.05468961    -0.72700
V119        V  0.28341739  0.52625902  0.03098565     1.35200
V120        V  0.34758949  0.52750943  0.02991218     1.35200
C121        C  0.32049769  0.46397508  0.07838338     0.76700
C122        C  0.31657993  0.58930829  0.98160970     0.76800
C123        C  0.31874073  0.47980480  0.96743031     0.76700
C124        C  0.31812677  0.57331251  0.09422012     0.76600
O125        O  0.42642664  0.70802649  0.08044730    -0.72500
O126        O  0.50927855  0.71178733  0.99056870    -0.72700
O127        O  0.42316149  0.70945388  0.99423955    -0.72600
O128        O  0.51258766  0.70989446  0.07626784    -0.72600
O129        O  0.49708528  0.64462414  0.08479747    -0.72500
O130        O  0.44149012  0.64518675  0.98381418    -0.72600
O131        O  0.52055507  0.64694245  0.00604095    -0.72500
O132        O  0.41819089  0.64361586  0.06235881    -0.72700
V133        V  0.46777823  0.71004064  0.03539057     1.35200
V134        V  0.46930607  0.64617872  0.03429015     1.35200
C135        C  0.40803033  0.67314990  0.08608021     0.76700
C136        C  0.52960188  0.67816106  0.98385291     0.76800
C137        C  0.41854834  0.67551380  0.97418119     0.76700
C138        C  0.51918333  0.67531301  0.09481951     0.76600
O139        O  0.66445667  0.48517444  0.06864147    -0.72500
O140        O  0.66013326  0.57770081  0.98854241    -0.72700
O141        O  0.66158457  0.57181107  0.07469698    -0.72600
O142        O  0.66305761  0.49197480  0.98248534    -0.72600
O143        O  0.59896708  0.47897600  0.00143254    -0.72500
O144        O  0.59638649  0.58017299  0.05743690    -0.72600
O145        O  0.59592645  0.55750898  0.97903767    -0.72500
O146        O  0.59957867  0.50160592  0.08042942    -0.72700
V147        V  0.66283738  0.53167262  0.02866153     1.35200
V148        V  0.59872701  0.52955675  0.02964903     1.35200
C149        C  0.63025917  0.47823764  0.08858430     0.76700
C150        C  0.62515544  0.58208123  0.96942381     0.76800
C151        C  0.62649347  0.59047862  0.08053996     0.76700
C152        C  0.62904766  0.47152459  0.97697650     0.76600
O153        O  0.52112947  0.34560252  0.98014348    -0.72500
O154        O  0.43146902  0.34264635  0.06319690    -0.72700
O155        O  0.43343649  0.34500048  0.97738948    -0.72600
O156        O  0.51830425  0.34302669  0.06597275    -0.72600
O157        O  0.52695129  0.40834393  0.05121864    -0.72500
O158        O  0.42417950  0.40918130  0.99568207    -0.72600
O159        O  0.44762015  0.40732359  0.07389326    -0.72500
O160        O  0.50353215  0.41034911  0.97255718    -0.72700
V161        V  0.47609293  0.34383365  0.02158500     1.35200
V162        V  0.47560758  0.40765222  0.02324031     1.35200
C163        C  0.52713532  0.38068424  0.96226733     0.76700
C164        C  0.42524820  0.37642519  0.08315155     0.76800
C165        C  0.41321487  0.37920760  0.97295676     0.76700
C166        C  0.53757222  0.37725055  0.07285553     0.76600
O167        O  0.42699808  0.49020448  0.83984169    -0.72500
O168        O  0.51665114  0.57401084  0.84307203    -0.72700
O169        O  0.51503871  0.48788564  0.84021137    -0.72600
O170        O  0.42957274  0.57631280  0.84258983    -0.72600
O171        O  0.41910117  0.55536290  0.90595083    -0.72500
O172        O  0.52385304  0.50390458  0.90505937    -0.72600
O173        O  0.49761952  0.58133087  0.90751610    -0.72500
O174        O  0.44542796  0.47776309  0.90353417    -0.72700
V175        V  0.47207304  0.53199039  0.84093273     1.35200
V176        V  0.47149251  0.52959448  0.90451059     1.35200
C177        C  0.42133188  0.46959162  0.87360526     0.76700
C178        C  0.52130312  0.59250739  0.87801493     0.76800
C179        C  0.53514138  0.48231127  0.87433593     0.76700
C180        C  0.40927573  0.57993116  0.87688023     0.76600
C181        C  0.61371040  0.17147966  0.66778035     0.85800
C182        C  0.58801576  0.13903170  0.69452629    -0.54500
C183        C  0.56380107  0.11294179  0.67092177     0.08700
C184        C  0.56638748  0.12307812  0.62439707     0.19600
C185        C  0.63818534  0.14451741  0.63497641    -0.55200
C186        C  0.61259791  0.11928204  0.61200864     0.08800
C187        C  0.57920392  0.19483387  0.64165238    -0.54700
C188        C  0.55459965  0.16883460  0.61910822     0.09400
H189        H  0.58979231  0.13655178  0.72826740     0.13900
H190        H  0.54586480  0.10273401  0.60566063    -0.00400
H191        H  0.67198423  0.14598214  0.63020991     0.14200
H192        H  0.57328544  0.22799731  0.64095557     0.14000
C193        C  0.60913716  0.17642082  0.38639694     0.85800
C194        C  0.57992557  0.19994914  0.41830143    -0.54500
C195        C  0.55637936  0.17365873  0.44226593     0.08700
C196        C  0.56337429  0.12793334  0.43159752     0.19600
C197        C  0.63491860  0.14526679  0.41435568    -0.55200
C198        C  0.61005020  0.11925791  0.43753715     0.08800
C199        C  0.57844312  0.14812858  0.36076499    -0.54700
C200        C  0.55519622  0.12187890  0.38512685     0.09400
H201        H  0.57846935  0.23323853  0.42321764     0.13900
H202        H  0.54302353  0.10787454  0.45100005    -0.00400
H203        H  0.66903089  0.14345796  0.41466353     0.14200
H204        H  0.57727769  0.14744310  0.32691786     0.14000
C205        C  0.33140564  0.16506456  0.67764134     0.85800
C206        C  0.36479156  0.13770283  0.70148203    -0.54500
C207        C  0.38961289  0.11494868  0.67540262     0.08700
C208        C  0.37844233  0.12094245  0.62953744     0.19600
C209        C  0.35820389  0.19127575  0.64591566    -0.55200
C210        C  0.38202860  0.16730590  0.61993659     0.08800
C211        C  0.30660347  0.13324957  0.65017600    -0.54700
C212        C  0.33197743  0.11012601  0.62489381     0.09400
H213        H  0.36964203  0.13637154  0.73483205     0.13900
H214        H  0.39885891  0.10211101  0.60903973    -0.00400
H215        H  0.35702587  0.22502232  0.64344062     0.14200
H216        H  0.27261691  0.12985738  0.65064148     0.14000
C217        C  0.32401595  0.17064858  0.38992928     0.85800
C218        C  0.35458824  0.19632509  0.41853117    -0.54500
C219        C  0.38105864  0.17175476  0.44148071     0.08700
C220        C  0.37338594  0.12541383  0.43457152     0.19600
C221        C  0.35337613  0.14108224  0.36397551    -0.55200
C222        C  0.37988491  0.11784470  0.38805086     0.08800
C223        C  0.30054414  0.14094257  0.42137467    -0.54700
C224        C  0.32730527  0.11786310  0.44514548     0.09400
H225        H  0.35542494  0.23012913  0.41973626     0.13900
H226        H  0.39378312  0.10509413  0.45356175    -0.00400
H227        H  0.35407495  0.14017304  0.33011328     0.14200
H228        H  0.26696730  0.13906305  0.42645656     0.14000
O229        O  0.51849679  0.15192123  0.50065170    -0.72500
O230        O  0.41745280  0.14984107  0.55898362    -0.72700
O231        O  0.43924150  0.15224924  0.47985693    -0.72600
O232        O  0.49702405  0.14903401  0.57975794    -0.72600
O233        O  0.51378198  0.21395278  0.57126174    -0.72500
O234        O  0.42087781  0.21605690  0.49145991    -0.72600
O235        O  0.42771292  0.21372981  0.57783286    -0.72500
O236        O  0.50763947  0.21668976  0.48498842    -0.72700
V237        V  0.46797807  0.15182693  0.52981713     1.35200
V238        V  0.46750649  0.21550489  0.53136416     1.35200
C239        C  0.52727488  0.18269667  0.47782013     0.76700
C240        C  0.40891150  0.17908109  0.58365910     0.76800
C241        C  0.41542139  0.18225780  0.47122403     0.76700
C242        C  0.51989689  0.17917372  0.58989137     0.76600
C243        C  0.61327926  0.88813599  0.38400625     0.85800
C244        C  0.58426417  0.91893706  0.35853218    -0.54500
C245        C  0.55809700  0.94228360  0.38328377     0.08700
C246        C  0.56499615  0.93374662  0.42966424     0.19600
C247        C  0.63737532  0.91811381  0.41458387    -0.55200
C248        C  0.61133317  0.94136466  0.43884897     0.08800
C249        C  0.58270958  0.86294451  0.41318547    -0.54700
C250        C  0.55676591  0.88751486  0.43644163     0.09400
H251        H  0.58470045  0.92216563  0.32485524     0.13900
H252        H  0.54510228  0.95346871  0.44965730    -0.00400
H253        H  0.67102267  0.92188947  0.41728624     0.14200
H254        H  0.58175526  0.82914720  0.41488549     0.14000
C255        C  0.32778291  0.89044255  0.38773563     0.85800
C256        C  0.30330391  0.92107500  0.41760138    -0.54500
C257        C  0.32944896  0.94493145  0.44123557     0.08700
C258        C  0.37581968  0.93526130  0.43396301     0.19600
C259        C  0.35811002  0.91966189  0.36280034    -0.55200
C260        C  0.38321602  0.94316108  0.38753242     0.08800
C261        C  0.35600810  0.86465689  0.41855335    -0.54700
C262        C  0.38137260  0.88877798  0.44279444     0.09400
H263        H  0.26958131  0.92446303  0.42045904     0.13900
H264        H  0.39702321  0.95404419  0.45359557    -0.00400
H265        H  0.35769290  0.92312519  0.32908023     0.14200
H266        H  0.35425786  0.83107354  0.42231207     0.14000
C267        C  0.33002650  0.88639800  0.67108365     0.85800
C268        C  0.36157971  0.86091988  0.64320299    -0.54500
C269        C  0.38786702  0.88560978  0.62000450     0.08700
C270        C  0.37909086  0.93196467  0.62604958     0.19600
C271        C  0.35836331  0.91693481  0.69687408    -0.55200
C272        C  0.38402499  0.94109539  0.67249489     0.08800
C273        C  0.30653926  0.91534004  0.63920994    -0.54700
C274        C  0.33297444  0.93856377  0.61553677     0.09400
H275        H  0.36284131  0.82711484  0.64229682     0.13900
H276        H  0.39953981  0.95187228  0.60654051    -0.00400
H277        H  0.35741312  0.91945113  0.73063797     0.14200
H278        H  0.27306485  0.91757767  0.63406682     0.14000
C279        C  0.62116924  0.88637553  0.66438932     0.85800
C280        C  0.59217311  0.86106991  0.63379598    -0.54500
C281        C  0.56521477  0.88557278  0.61128935     0.08700
C282        C  0.56955457  0.93173771  0.62186310     0.19600
C283        C  0.64293555  0.91907907  0.63471205    -0.55200
C284        C  0.61516388  0.94350473  0.61362008     0.08800
C285        C  0.58973525  0.91262995  0.69167472    -0.54700
C286        C  0.56218779  0.93602292  0.66868115     0.09400
H287        H  0.59376614  0.82750877  0.62983339     0.13900
H288        H  0.54791638  0.95128128  0.60338958    -0.00400
H289        H  0.67607108  0.92225020  0.62829388     0.14200
H290        H  0.58924663  0.91204940  0.72554936     0.14000
O291        O  0.59053757  0.06093901  0.47588933    -0.72500
O292        O  0.59203350  0.00036974  0.57461690    -0.72700
O293        O  0.59129740  0.08012825  0.55516323    -0.72600
O294        O  0.59096555  0.98159981  0.49538643    -0.72600
O295        O  0.65616299  0.99099342  0.47828643    -0.72500
O296        O  0.65712591  0.07140841  0.56987762    -0.72600
O297        O  0.65766740  0.98539255  0.56417428    -0.78100
O298        O  0.65598204  0.07730502  0.48404715    -0.72700
V299        V  0.59242866  0.03080705  0.52523815     1.35200
V300        V  0.65692081  0.03124099  0.52406626     1.35200
C301        C  0.62089882  0.08407153  0.46603814     0.76700
C302        C  0.62334273  0.97814180  0.58361702     0.76800
C303        C  0.62236028  0.09007150  0.57712836     0.76700
C304        C  0.62144406  0.97185895  0.47242447     0.76600
O305        O  0.43513123  0.97916898  0.71745272    -0.72500
O306        O  0.51724042  0.07056733  0.71738501    -0.72700
O307        O  0.43053809  0.06526995  0.71885391    -0.72600
O308        O  0.52264390  0.98395773  0.71603417    -0.72600
O309        O  0.50262961  0.97468892  0.65238135    -0.72500
O310        O  0.44811517  0.07692655  0.65457286    -0.72600
O311        O  0.52711972  0.05294129  0.65307466    -0.72500
O312        O  0.42383615  0.99890059  0.65385678    -0.72700
V313        V  0.47645227  0.02464809  0.71799837     1.35200
V314        V  0.47549337  0.02582117  0.65445082     1.35200
C315        C  0.41448700  0.97485628  0.68351113     0.76700
C316        C  0.53630115  0.07680720  0.68272932     0.76800
C317        C  0.42472069  0.08563119  0.68499652     0.76700
C318        C  0.52733241  0.96487458  0.68135639     0.76600
O319        O  0.34939468  0.08006895  0.50309641    -0.72500
O320        O  0.35263506  0.97851800  0.55842495    -0.72700
O321        O  0.35009052  0.00189877  0.48008529    -0.72600
O322        O  0.35213560  0.05624312  0.58157610    -0.72600
O323        O  0.28646229  0.07264781  0.57457965    -0.72500
O324        O  0.28534808  0.98404254  0.49133327    -0.72600
O325        O  0.28758067  0.98716505  0.57701025    -0.72500
O326        O  0.28400179  0.06969030  0.48778949    -0.72700
V327        V  0.34994806  0.02924961  0.53078848     1.35200
V328        V  0.28554825  0.02849287  0.53267264     1.35200
C329        C  0.31830665  0.08902428  0.48059287     0.76700
C330        C  0.32257365  0.96832996  0.58182583     0.76800
C331        C  0.31961014  0.97874183  0.47118698     0.76700
C332        C  0.32146031  0.07789213  0.59335987     0.76600
O333        O  0.50787471  0.07963312  0.33976337    -0.72500
O334        O  0.43031844  0.98467853  0.34135743    -0.72700
O335        O  0.42127343  0.07053860  0.34171465    -0.72600
O336        O  0.51707030  0.99285843  0.33909354    -0.72600
O337        O  0.50072439  0.98221506  0.40368342    -0.72500
O338        O  0.44014856  0.08075546  0.40560632    -0.72600
O339        O  0.42106867  0.00162094  0.40601993    -0.72500
O340        O  0.52016943  0.06133848  0.40349551    -0.72700
V341        V  0.46921038  0.03194409  0.33997784     1.35200
V342        V  0.47056752  0.03151860  0.40360720     1.35200
C343        C  0.52749377  0.08602244  0.37390640     0.76700
C344        C  0.41187386  0.97808609  0.37625902     0.76800
C345        C  0.41535261  0.08937740  0.37633481     0.76700
C346        C  0.52382888  0.97307429  0.37318983     0.76600
O347        O  0.51441314  0.84086901  0.57227764    -0.72500
O348        O  0.43026670  0.84256442  0.48266264    -0.72700
O349        O  0.51735429  0.84198799  0.48592830    -0.72600
O350        O  0.42697952  0.84103195  0.56938706    -0.72600
O351        O  0.44542318  0.90499124  0.57969476    -0.72500
O352        O  0.49930670  0.90641213  0.47701831    -0.72600
O353        O  0.42051772  0.90651027  0.50145969    -0.72500
O354        O  0.52407402  0.90532760  0.55484179    -0.72700
V355        V  0.47218906  0.84114710  0.52758768     1.35200
V356        V  0.47228865  0.90474187  0.52827813     1.35200
C357        C  0.53436583  0.87506490  0.57763347     0.76700
C358        C  0.41079098  0.87712770  0.47749939     0.76800
C359        C  0.52272148  0.87655316  0.46673668     0.76700
C360        C  0.42192157  0.87501516  0.58949273     0.76600
C361        C  0.83957557  0.37975716  0.66984144     0.85800
C362        C  0.87458228  0.35606106  0.64449623    -0.54500
C363        C  0.89833201  0.38188931  0.62025524     0.08700
C364        C  0.88497712  0.42745434  0.62324774     0.19600
C365        C  0.86468028  0.41414270  0.69445836    -0.55200
C366        C  0.88813757  0.43973043  0.66905609     0.08800
C367        C  0.81416120  0.40422084  0.63610618    -0.54700
C368        C  0.83852624  0.42906460  0.61167792     0.09400
H369        H  0.88118594  0.32300526  0.64558329     0.13900
H370        H  0.90418697  0.44782010  0.60297825    -0.00400
H371        H  0.86319192  0.41802468  0.72806343     0.14200
H372        H  0.78034807  0.40173800  0.63199533     0.14000
C373        C  0.84277767  0.37514766  0.38526265     0.85800
C374        C  0.87510826  0.40352994  0.36142503    -0.54500
C375        C  0.89755854  0.42850394  0.38692850     0.08700
C376        C  0.88613490  0.42343407  0.43278369     0.19600
C377        C  0.87055167  0.35135803  0.41818847    -0.55200
C378        C  0.89250576  0.37755855  0.44383647     0.08800
C379        C  0.81563381  0.40632998  0.41173822    -0.54700
C380        C  0.83913837  0.43202859  0.43638133     0.09400
H381        H  0.88150812  0.40408697  0.32833145     0.13900
H382        H  0.90501428  0.44429969  0.45263980    -0.00400
H383        H  0.87204663  0.31767290  0.42111969     0.14200
H384        H  0.78154557  0.40802831  0.41041147     0.14000
C385        C  0.82503252  0.65865342  0.38495302     0.85800
C386        C  0.85668997  0.68468020  0.41119250    -0.54500
C387        C  0.88363540  0.66104507  0.43381526     0.08700
C388        C  0.87524384  0.61449968  0.42988971     0.19600
C389        C  0.85291278  0.62736121  0.35916878    -0.55200
C390        C  0.87909455  0.60378413  0.38370382     0.08800
C391        C  0.80200972  0.63007259  0.41761205    -0.54700
C392        C  0.82915097  0.60752364  0.44140863     0.09400
H393        H  0.85793643  0.71852005  0.41114908     0.13900
H394        H  0.89687163  0.59610827  0.44964828    -0.00400
H395        H  0.85151563  0.62414256  0.32549166     0.14200
H396        H  0.76842125  0.62696863  0.42200319     0.14000
C397        C  0.82272695  0.66435484  0.66151925     0.85800
C398        C  0.85705022  0.64039261  0.68761378    -0.54500
C399        C  0.88385888  0.61699345  0.66362689     0.08700
C400        C  0.87331667  0.61949143  0.61720258     0.19600
C401        C  0.84845957  0.68951959  0.62813577    -0.55200
C402        C  0.87497371  0.66545926  0.60489326     0.08800
C403        C  0.80065081  0.62839160  0.63629508    -0.54700
C404        C  0.82790840  0.60519423  0.61305265     0.09400
H405        H  0.85970011  0.64212713  0.72132836     0.13900
H406        H  0.89461856  0.60037908  0.59789298    -0.00400
H407        H  0.84595833  0.72301879  0.62381600     0.14200
H408        H  0.76807352  0.61924412  0.63806794     0.14000
O409        O  0.92106271  0.70972169  0.47988296    -0.72500
O410        O  0.01087277  0.71889655  0.56255295    -0.72700
O411        O  0.00766798  0.71600266  0.47591773    -0.72600
O412        O  0.92334802  0.71251266  0.56555091    -0.72600
O413        O  0.91827457  0.64730192  0.54929630    -0.72500
O414        O  0.02267421  0.65359632  0.49679530    -0.72600
O415        O  0.99601243  0.65435604  0.57484567    -0.72500
O416        O  0.94408106  0.64666196  0.47168410    -0.72700
V417        V  0.96575601  0.71482219  0.52100648     1.35200
V418        V  0.97034439  0.65146450  0.52312566     1.35200
C419        C  0.91816308  0.67452908  0.46164604     0.76700
C420        C  0.01800156  0.68565879  0.58350272     0.76800
C421        C  0.02993810  0.68306132  0.47174025     0.76700
C422        C  0.90554309  0.67716426  0.57126400     0.76600
O423        O  0.92440945  0.49949898  0.64751441    -0.72500
O424        O  0.02401384  0.56072529  0.64557356    -0.72700
O425        O  0.00482603  0.48102793  0.64756545    -0.72600
O426        O  0.94363862  0.57950631  0.64517547    -0.72600
O427        O  0.92680452  0.57098828  0.71003703    -0.72500
O428        O  0.02156846  0.49246690  0.71186873    -0.72600
O429        O  0.01385929  0.57854013  0.70983207    -0.72500
O430        O  0.93479293  0.48461708  0.71252285    -0.72700
V431        V  0.97419970  0.53023707  0.64760333     1.35200
V432        V  0.97422189  0.53169160  0.71137599     1.35200
C433        C  0.91572814  0.47663608  0.67840664     0.76700
C434        C  0.03314059  0.58459977  0.67528915     0.76800
C435        C  0.02832551  0.47271364  0.67792191     0.76700
C436        C  0.92003320  0.58921344  0.67512208     0.76600
O437        O  0.02909840  0.50191621  0.40299205    -0.72500
O438        O  0.92136761  0.54775090  0.40329077    -0.72700
O439        O  0.95249507  0.47180616  0.40524604    -0.72600
O440        O  0.99764374  0.57799190  0.40191517    -0.72600
O441        O  0.01652195  0.56790874  0.33777501    -0.72500
O442        O  0.93278805  0.47937502  0.34097448    -0.72600
O443        O  0.92991271  0.56566276  0.33867383    -0.72500
O444        O  0.01918098  0.48143391  0.33954072    -0.72700
V445        V  0.97519087  0.52485379  0.40239278     1.35200
V446        V  0.97460450  0.52360001  0.33873679     1.35200
C447        C  0.03951016  0.47790408  0.37369132     0.76700
C448        C  0.91007384  0.57029617  0.37306699     0.76800
C449        C  0.92963986  0.45999615  0.37572911     0.76700
C450        C  0.02008552  0.58869589  0.37149326     0.76600
O451        O  0.94341157  0.33603358  0.48553811    -0.72500
O452        O  0.02702086  0.34332314  0.57460292    -0.72700
O453        O  0.94029683  0.33796030  0.57208632    -0.72600
O454        O  0.02977113  0.34175911  0.48836167    -0.72600
O455        O  0.00658787  0.40419818  0.47668332    -0.72500
O456        O  0.95531381  0.40315063  0.58056274    -0.72600
O457        O  0.03316875  0.40740786  0.55417150    -0.72500
O458        O  0.92861396  0.39946655  0.50293862    -0.72700
V459        V  0.98513064  0.33922160  0.53020919     1.35200
V460        V  0.98095781  0.40262397  0.52861842     1.35200
C461        C  0.92140211  0.36883182  0.47957284     0.76700
C462        C  0.04478887  0.37879207  0.57851760     0.76800
C463        C  0.93350159  0.37226023  0.59113232     0.76700
C464        C  0.03211945  0.37574088  0.46759282     0.76600
O465        O  0.85160658  0.54665786  0.57688375    -0.72500
O466        O  0.85547705  0.49103082  0.47513751    -0.72700
O467        O  0.85104867  0.56933676  0.49845485    -0.72600
O468        O  0.85641249  0.46808428  0.55360505    -0.72600
O469        O  0.79083181  0.47434116  0.57093295    -0.72500
O470        O  0.78679869  0.55598101  0.48058226    -0.72600
O471        O  0.79152362  0.46996653  0.48481732    -0.72500
O472        O  0.78578350  0.56033026  0.56626569    -0.72700
V473        V  0.85256762  0.51866960  0.52601981     1.35200
V474        V  0.78834747  0.51507722  0.52567344     1.35200
C475        C  0.81985675  0.56847401  0.58562347     0.76700
C476        C  0.82649136  0.46619934  0.46545179     0.76800
C477        C  0.82027418  0.57736860  0.47537033     0.76700
C478        C  0.82651619  0.45699642  0.57673314     0.76600
C479        C  0.12501785  0.39673463  0.66929310     0.85800
C480        C  0.14759077  0.43065861  0.64166700    -0.54500
C481        C  0.12045066  0.45236188  0.61680548     0.08700
C482        C  0.07491437  0.43864182  0.62195730     0.19600
C483        C  0.09092200  0.42278140  0.69359429    -0.55200
C484        C  0.06418546  0.44418340  0.66803810     0.08800
C485        C  0.09948831  0.36949397  0.63785708    -0.54700
C486        C  0.07358086  0.39216087  0.61265112     0.09400
H487        H  0.18044486  0.43918750  0.64307577     0.13900
H488        H  0.05349203  0.45641505  0.60152758    -0.00400
H489        H  0.08847564  0.42422104  0.72735088     0.14200
H490        H  0.10225237  0.33582614  0.63569420     0.14000
C491        C  0.10954754  0.67112989  0.37790058     0.85800
C492        C  0.07577748  0.64413519  0.35486818    -0.54500
C493        C  0.05260133  0.62017125  0.38117671     0.08700
C494        C  0.06388581  0.62610294  0.42691124     0.19600
C495        C  0.08267634  0.69693964  0.41017505    -0.55200
C496        C  0.05903369  0.67243858  0.43637630     0.08800
C497        C  0.13507361  0.63959574  0.40525804    -0.54700
C498        C  0.11043128  0.61590864  0.43078572     0.09400
H499        H  0.06826623  0.64478614  0.32205990     0.13900
H500        H  0.04435769  0.60656306  0.44771786    -0.00400
H501        H  0.08311149  0.73070289  0.41228331     0.14200
H502        H  0.16909298  0.63650688  0.40424206     0.14000
C503        C  0.11289928  0.67768118  0.66210726     0.85800
C504        C  0.13675063  0.65091489  0.62863042    -0.54500
C505        C  0.11097352  0.62671988  0.60564847     0.08700
C506        C  0.06495768  0.63077384  0.61780895     0.19600
C507        C  0.07920709  0.70234880  0.63578493    -0.55200
C508        C  0.05351664  0.67680086  0.61293057     0.08800
C509        C  0.08671601  0.64508777  0.68809044    -0.54700
C510        C  0.06170833  0.62017310  0.66406324     0.09400
H511        H  0.17000315  0.65085735  0.62177995     0.13900
H512        H  0.04513874  0.61015088  0.59873498    -0.00400
H513        H  0.07618015  0.73605716  0.63557552     0.14200
H514        H  0.08866479  0.64181460  0.72176121     0.14000
C515        C  0.12436688  0.38962186  0.38819815     0.85800
C516        C  0.09273723  0.36389728  0.41546355    -0.54500
C517        C  0.06562250  0.38798411  0.43766430     0.08700
C518        C  0.07339358  0.43450826  0.43181617     0.19600
C519        C  0.09610486  0.41997933  0.36165514    -0.55200
C520        C  0.06979639  0.44408028  0.38537928     0.08800
C521        C  0.14661626  0.41914434  0.42040565    -0.54700
C522        C  0.11908808  0.44201717  0.44329382     0.09400
H523        H  0.09196537  0.33006710  0.41674324     0.13900
H524        H  0.05165295  0.45359005  0.45073455    -0.00400
H525        H  0.09767984  0.42248690  0.32789065     0.14200
H526        H  0.17963791  0.42288204  0.42632293     0.14000
O527        O  0.09259151  0.55935592  0.47263409    -0.72500
O528        O  0.09652913  0.50778608  0.57651955    -0.72700
O529        O  0.09176649  0.58508633  0.55010968    -0.72600
O530        O  0.09673144  0.48195118  0.49903317    -0.72600
O531        O  0.16131748  0.49400878  0.48088867    -0.72500
O532        O  0.15761388  0.57954412  0.56654630    -0.72600
O533        O  0.16246633  0.49379607  0.56671880    -0.72500
O534        O  0.15704231  0.57967469  0.48058732    -0.72700
V535        V  0.09550714  0.53359085  0.52455576     1.35200
V536        V  0.15987969  0.53680822  0.52369498     1.35200
C537        C  0.12208583  0.58304046  0.46142992     0.76700
C538        C  0.12840986  0.48685364  0.58667143     0.76800
C539        C  0.12200017  0.59709283  0.57206998     0.76700
C540        C  0.12765169  0.47291512  0.47635681     0.76600
C541        C  0.22061366  0.27710272  0.27504089    -0.03200
C542        C  0.72500562  0.27654827  0.27836237    -0.03200
C543        C  0.22506581  0.78017290  0.27860752    -0.03200
C544        C  0.22225146  0.27856502  0.77742513    -0.03200
C545        C  0.72241048  0.27846137  0.77607958    -0.03200
C546        C  0.72232141  0.77403487  0.28143021    -0.03200
C547        C  0.22169868  0.77663884  0.77807224    -0.03200
C548        C  0.11553087  0.17416327  0.15996484     0.85800
C549        C  0.08575062  0.14491325  0.18601267    -0.54500
C550        C  0.06120282  0.11965473  0.16200441     0.08700
C551        C  0.06919121  0.12599428  0.11545972     0.19600
C552        C  0.14104048  0.14434803  0.13065070    -0.55200
C553        C  0.11602770  0.11934321  0.10694839     0.08800
C554        C  0.08484994  0.19793692  0.12947943    -0.54700
C555        C  0.06113640  0.17178603  0.10587595     0.09400
H556        H  0.08401590  0.14494421  0.21985104     0.13900
H557        H  0.04919879  0.10496981  0.09697707    -0.00400
H558        H  0.17510488  0.14441978  0.12799125     0.14200
H559        H  0.08196932  0.23127704  0.12552415     0.14000
C560        C  0.10821894  0.16761479  0.87696920     0.85800
C561        C  0.07893650  0.19325612  0.90693329    -0.54500
C562        C  0.05469677  0.16877008  0.93232975     0.08700
C563        C  0.06308428  0.12232709  0.92602930     0.19600
C564        C  0.13420820  0.13781383  0.90581084    -0.55200
C565        C  0.11000259  0.11396836  0.93144836     0.08800
C566        C  0.07694286  0.13748339  0.85359473    -0.54700
C567        C  0.05302002  0.11399762  0.88036675     0.09400
H568        H  0.07655448  0.22702407  0.90648439     0.13900
H569        H  0.04468247  0.10294679  0.94790490    -0.00400
H570        H  0.16826886  0.13520307  0.90494745     0.14200
H571        H  0.07304523  0.13494536  0.82018661     0.14000
C572        C  0.83286360  0.16657687  0.17175763     0.85800
C573        C  0.80584087  0.13895676  0.14159043    -0.54500
C574        C  0.82962779  0.11502815  0.11524566     0.08700
C575        C  0.87680734  0.12048991  0.12242223     0.19600
C576        C  0.86222379  0.13463899  0.19474420    -0.55200
C577        C  0.88477490  0.11050983  0.16823348     0.08800
C578        C  0.86347783  0.19154756  0.14248729    -0.54700
C579        C  0.88656493  0.16671488  0.11660166     0.09400
H580        H  0.77168923  0.13892834  0.14108626     0.13900
H581        H  0.89598998  0.10069457  0.10163032    -0.00400
H582        H  0.86574655  0.13043296  0.22799187     0.14200
H583        H  0.86681914  0.22522262  0.14290113     0.14000
C584        C  0.12350754  0.89003351  0.16618525     0.85800
C585        C  0.09361150  0.91932030  0.19174535    -0.54500
C586        C  0.06808031  0.94305324  0.16719512     0.08700
C587        C  0.07464662  0.93495872  0.12074651     0.19600
C588        C  0.09374581  0.86428546  0.13696758    -0.55200
C589        C  0.06804321  0.88857088  0.11296208     0.08800
C590        C  0.14737130  0.92064163  0.13568187    -0.54700
C591        C  0.12076538  0.94452572  0.11237916     0.09400
H592        H  0.09378717  0.92171383  0.22553584     0.13900
H593        H  0.05343142  0.95373805  0.10112312    -0.00400
H594        H  0.09357570  0.83048183  0.13543568     0.14200
H595        H  0.18102649  0.92476257  0.13311739     0.14000
C596        C  0.83402928  0.88369415  0.17547029     0.85800
C597        C  0.86523285  0.91299887  0.20002978    -0.54500
C598        C  0.88893628  0.93826246  0.17440220     0.08700
C599        C  0.87866538  0.93199303  0.12850089     0.19600
C600        C  0.80771951  0.91339788  0.14664478    -0.55200
C601        C  0.83164272  0.93950585  0.12284976     0.08800
C602        C  0.86419102  0.86011517  0.14452953    -0.54700
C603        C  0.88755574  0.88611380  0.12039277     0.09400
H604        H  0.86993871  0.91169602  0.23352346     0.13900
H605        H  0.89712322  0.95230673  0.10753443    -0.00400
H606        H  0.77359235  0.91361461  0.14540832     0.14200
H607        H  0.86979146  0.82695242  0.14299601     0.14000
O608        O  0.93633738  0.07317511  0.21197659    -0.72500
O609        O  0.01968649  0.98361460  0.21296410    -0.72700
O610        O  0.02324788  0.07018625  0.20923666    -0.72600
O611        O  0.93239762  0.98760698  0.21622632    -0.72600
O612        O  0.94775128  0.97550683  0.15167564    -0.72500
O613        O  0.00415041  0.07702375  0.14484288    -0.72600
O614        O  0.02680319  0.99891100  0.14762269    -0.72500
O615        O  0.92484527  0.05383720  0.14831277    -0.72700
V616        V  0.97802801  0.02865778  0.21293654     1.35200
V617        V  0.97592586  0.02629654  0.14923134     1.35200
C618        C  0.91567733  0.07740921  0.17810209     0.76700
C619        C  0.03785183  0.97685217  0.17803993     0.76800
C620        C  0.02789055  0.08852606  0.17401330     0.76700
C621        C  0.92502528  0.96722902  0.18289323     0.76600
C622        C  0.11270376  0.88246274  0.88726274     0.85800
C623        C  0.13835283  0.91131968  0.91717687    -0.54500
C624        C  0.11365234  0.93691569  0.94054397     0.08700
C625        C  0.06684627  0.93100231  0.93208289     0.19600
C626        C  0.08114812  0.85903804  0.91685610    -0.55200
C627        C  0.05710717  0.88520222  0.93979732     0.08800
C628        C  0.08391865  0.91298280  0.86121827    -0.54700
C629        C  0.05982271  0.93884613  0.88561465     0.09400
H630        H  0.17240290  0.91092417  0.91982604     0.13900
H631        H  0.04736905  0.95133549  0.95194288    -0.00400
H632        H  0.07675781  0.82581392  0.92000452     0.14200
H633        H  0.08309216  0.91381256  0.82736858     0.14000
O634        O  0.15785057  0.07519329  0.97914946    -0.72500
O635        O  0.16331399  0.98528916  0.06175957    -0.72700
O636        O  0.15938881  0.98858043  0.97608098    -0.72600
O637        O  0.16157705  0.07138685  0.06562146    -0.72600
O638        O  0.09602661  0.08000642  0.05005431    -0.72500
O639        O  0.09543858  0.97802634  0.99688852    -0.72600
O640        O  0.09862072  0.00211351  0.07447825    -0.72500
O641        O  0.09294287  0.05625245  0.97225154    -0.72700
V642        V  0.16099154  0.03022311  0.02055154     1.35200
V643        V  0.09682163  0.02912531  0.02335180     1.35200
C644        C  0.12231574  0.08009629  0.96118223     0.76700
C645        C  0.12962209  0.97916661  0.08262472     0.76800
C646        C  0.12503792  0.96813985  0.97288335     0.76700
C647        C  0.12668859  0.09001250  0.07246000     0.76600
C648        C  0.82052153  0.16416054  0.88772636     0.85800
C649        C  0.79580818  0.13334681  0.91745024    -0.54500
C650        C  0.82178742  0.10896250  0.94116608     0.08700
C651        C  0.86821821  0.11815695  0.93354359     0.19600
C652        C  0.84986635  0.18918035  0.91756675    -0.55200
C653        C  0.87481079  0.16457581  0.94166364     0.08800
C654        C  0.85071273  0.13461073  0.86236222    -0.54700
C655        C  0.87568567  0.11011041  0.88715126     0.09400
H656        H  0.76203932  0.12943124  0.91888876     0.13900
H657        H  0.88908966  0.09922075  0.95342693    -0.00400
H658        H  0.85034405  0.22297172  0.91948583     0.14200
H659        H  0.85117525  0.13273812  0.82854814     0.14000
O660        O  0.01002918  0.21477914  0.06645092    -0.72500
O661        O  0.92506439  0.21109797  0.97850957    -0.72700
O662        O  0.92344547  0.21185204  0.06499468    -0.72600
O663        O  0.01277365  0.21399838  0.98034646    -0.72600
O664        O  0.99643037  0.14927202  0.97166328    -0.72500
O665        O  0.94332219  0.14801371  0.07486676    -0.72600
O666        O  0.91801995  0.14660422  0.99713902    -0.72500
O667        O  0.02166259  0.15060850  0.04928360    -0.72700
V668        V  0.96774756  0.21335701  0.02244483     1.35200
V669        V  0.96983298  0.14971319  0.02319135     1.35200
C670        C  0.03068316  0.18109475  0.07201845     0.76700
C671        C  0.90632207  0.17613595  0.97411345     0.76800
C672        C  0.91958976  0.17761496  0.08519788     0.76700
C673        C  0.01947719  0.17950878  0.96160443     0.76600
C674        C  0.82587521  0.87857390  0.89326350     0.85800
C675        C  0.85703417  0.85535576  0.92385456    -0.54500
C676        C  0.88070363  0.88190138  0.94729236     0.08700
C677        C  0.87182437  0.92750511  0.93755371     0.19600
C678        C  0.80016848  0.90815262  0.92292229    -0.55200
C679        C  0.82498731  0.93373689  0.94638880     0.08800
C680        C  0.85508662  0.90823924  0.86706094    -0.54700
C681        C  0.87969861  0.93360557  0.89092963     0.09400
H682        H  0.85972642  0.82205246  0.92830412     0.13900
H683        H  0.89149108  0.94890701  0.95590405    -0.00400
H684        H  0.76615398  0.90748290  0.92601405     0.14200
H685        H  0.85685572  0.90792934  0.83322391     0.14000
O686        O  0.92157508  0.90419816  0.00291338    -0.72500
O687        O  0.02428940  0.90702394  0.05764034    -0.72700
O688        O  0.00017875  0.90524568  0.97959011    -0.72600
O689        O  0.94516610  0.90626638  0.08104445    -0.72600
O690        O  0.92907021  0.84122601  0.07324426    -0.72500
O691        O  0.01879873  0.84114050  0.99029170    -0.72600
O692        O  0.01654462  0.84266402  0.07630764    -0.72500
O693        O  0.93210012  0.83941117  0.98745052    -0.72700
V694        V  0.97285673  0.90455791  0.03039332     1.35200
V695        V  0.97413141  0.84079028  0.03191528     1.35200
C696        C  0.91190889  0.87325455  0.98097892     0.76700
C697        C  0.03581034  0.87734249  0.08069821     0.76800
C698        C  0.02356921  0.87522285  0.97021202     0.76700
C699        C  0.92235900  0.87599800  0.09126262     0.76600
O700        O  0.84514517  0.97305048  0.00360788    -0.72500
O701        O  0.84648271  0.07528868  0.05710052    -0.72700
O702        O  0.84849897  0.99700776  0.08154683    -0.72600
O703        O  0.84307074  0.05104161  0.97917726    -0.72600
O704        O  0.77868395  0.06860924  0.99220093    -0.72500
O705        O  0.78363988  0.97809438  0.07467547    -0.72600
O706        O  0.78277994  0.06468113  0.07842606    -0.72500
O707        O  0.77972185  0.98226246  0.98801123    -0.72700
V708        V  0.84475222  0.02408288  0.03040981     1.35200
V709        V  0.78068551  0.02335586  0.03338568     1.35200
C710        C  0.81442783  0.96323163  0.98111427     0.76700
C711        C  0.81732601  0.08483486  0.08185541     0.76800
C712        C  0.81914871  0.97318741  0.09274552     0.76700
C713        C  0.81233648  0.07434204  0.97104964     0.76600
O714        O  0.93775933  0.97443143  0.90845023    -0.72500
O715        O  0.99712541  0.07379131  0.90385095    -0.72700
O716        O  0.91745429  0.05380141  0.90717492    -0.72600
O717        O  0.01791605  0.99498794  0.90527316    -0.72600
O718        O  0.00754245  0.97742749  0.84114630    -0.72500
O719        O  0.92410838  0.06832030  0.84161757    -0.72600
O720        O  0.01116118  0.06370618  0.83860932    -0.72500
O721        O  0.91982337  0.98171647  0.84384488    -0.72700
V722        V  0.96751790  0.02415397  0.90492599     1.35200
V723        V  0.96560362  0.02272663  0.84109365     1.35200
C724        C  0.91404508  0.96368364  0.87903401     0.76700
C725        C  0.01870938  0.08332888  0.87234580     0.76800
C726        C  0.90627706  0.07583620  0.87664328     0.76700
C727        C  0.02795241  0.97206642  0.87512922     0.76600
C728        C  0.72229375  0.77390501  0.77643817    -0.03200
C729        C  0.80138931  0.80729187  0.86387894    -0.27000
C730        C  0.79763260  0.85109828  0.86516035    -0.15100
C731        C  0.76702954  0.86949684  0.83895407     0.35500
C732        C  0.74213192  0.84476507  0.81246284    -0.26500
C733        C  0.74853075  0.80123138  0.80802432    -0.15700
C734        C  0.77738189  0.78266951  0.83644893     0.36600
N735        N  0.78327217  0.73842537  0.83719397    -0.90000
H736        H  0.82355482  0.79100271  0.88332593     0.17700
H737        H  0.71729447  0.86063847  0.79590496     0.17700
N738        N  0.76086097  0.91376247  0.83904049    -0.89000
H739        H  0.77591382  0.72765789  0.86718390     0.35100
H740        H  0.81503091  0.73196077  0.83158123     0.40200
H741        H  0.72952559  0.91976032  0.84707257     0.39800
H742        H  0.76588415  0.92484735  0.80869641     0.34700
C743        C  0.19959475  0.84818735  0.81082215    -0.27000
C744        C  0.19474669  0.80431055  0.80849636    -0.15100
C745        C  0.16570897  0.78601119  0.83687507     0.35500
C746        C  0.13961624  0.81099816  0.86168845    -0.26500
C747        C  0.14161237  0.85490381  0.86047037    -0.15700
C748        C  0.17277731  0.87321747  0.83494716     0.36600
N749        N  0.17771971  0.91761982  0.83360543    -0.90000
H750        H  0.22419225  0.86421783  0.79397342     0.17700
H751        H  0.11781004  0.79459291  0.88140538     0.17700
N752        N  0.16162451  0.74163638  0.84003338    -0.89000
H753        H  0.20841578  0.92474422  0.84284560     0.35100
H754        H  0.17399375  0.92746131  0.80268668     0.40200
H755        H  0.13044664  0.73357823  0.83355814     0.39800
H756        H  0.16807382  0.73285544  0.87083022     0.34700
C757        C  0.80347014  0.81217893  0.19743679    -0.27000
C758        C  0.80523709  0.85586112  0.20312086    -0.15100
C759        C  0.77670369  0.87305723  0.23270054     0.35500
C760        C  0.74921565  0.84713787  0.25520671    -0.26500
C761        C  0.75027160  0.80301948  0.25250680    -0.15700
C762        C  0.77689381  0.78622283  0.22110756     0.36600
N763        N  0.77754230  0.74229398  0.21306525    -0.90000
H764        H  0.82191889  0.79667558  0.17405847     0.17700
H765        H  0.72692655  0.86301131  0.27491076     0.17700
N766        N  0.77414549  0.91690691  0.24108592    -0.89000
H767        H  0.80830992  0.73140333  0.21697603     0.35100
H768        H  0.76902580  0.73761180  0.18192487     0.40200
H769        H  0.76629071  0.93330659  0.21404345     0.39800
H770        H  0.80274496  0.92751532  0.25273652     0.34700
C771        C  0.79270149  0.25005219  0.80790259    -0.27000
C772        C  0.74822625  0.25051871  0.80734486    -0.15100
C773        C  0.72750481  0.22475052  0.83724214     0.35500
C774        C  0.75053970  0.19705594  0.86264443    -0.26500
C775        C  0.79470900  0.19398964  0.85992755    -0.15700
C776        C  0.81558231  0.22171269  0.83244940     0.36600
N777        N  0.86059313  0.22152949  0.82946494    -0.90000
H778        H  0.81085068  0.27178997  0.78952848     0.17700
H779        H  0.73290851  0.17839058  0.88453213     0.17700
N780        N  0.68260472  0.22595214  0.84145983    -0.89000
H781        H  0.87152013  0.25129227  0.83701386     0.35100
H782        H  0.86882912  0.21546049  0.79844364     0.40200
H783        H  0.67536849  0.23430376  0.87217749     0.39800
H784        H  0.67086243  0.19598308  0.83625992     0.34700
C785        C  0.19565779  0.24532759  0.84743627    -0.27000
C786        C  0.19312085  0.24863277  0.80353758    -0.15100
C787        C  0.16372467  0.22192716  0.78337892     0.35500
C788        C  0.13647299  0.19630005  0.80679782    -0.26500
C789        C  0.13732006  0.19570866  0.85070909    -0.15700
C790        C  0.16746000  0.22101359  0.87077965     0.36600
N791        N  0.17005570  0.22183227  0.91542948    -0.90000
H792        H  0.22010930  0.26077752  0.86471494     0.17700
H793        H  0.11456909  0.17736581  0.78967522     0.17700
N794        N  0.16066394  0.22130885  0.73877519    -0.89000
H795        H  0.16573397  0.25262281  0.92518932     0.35100
H796        H  0.20035277  0.21248520  0.92407344     0.40200
H797        H  0.16641717  0.19083667  0.72870853     0.39800
H798        H  0.12990113  0.22926019  0.73042658     0.34700
C799        C  0.15390406  0.80918562  0.24974869    -0.27000
C800        C  0.19842023  0.80872777  0.24878837    -0.15100
C801        C  0.21840021  0.83735353  0.22111739     0.35500
C802        C  0.19449758  0.86327136  0.19484872    -0.26500
C803        C  0.15018905  0.86212768  0.19483990    -0.15700
C804        C  0.13015633  0.83460604  0.22304745     0.36600
N805        N  0.08513535  0.83251101  0.22506156    -0.90000
H806        H  0.13636261  0.79072846  0.27193626     0.17700
H807        H  0.21171960  0.88399615  0.17461504     0.17700
N808        N  0.26340122  0.84001084  0.21920769    -0.89000
H809        H  0.07573933  0.83971685  0.25549654     0.35100
H810        H  0.07606912  0.80182351  0.21883325     0.40200
H811        H  0.27215196  0.87054799  0.22649605     0.39800
H812        H  0.27295193  0.83393909  0.18856714     0.34700
C813        C  0.75606684  0.25265072  0.20655512    -0.27000
C814        C  0.75423767  0.24835221  0.25057499    -0.15100
C815        C  0.78229039  0.21897996  0.26876181     0.35500
C816        C  0.80697155  0.19284922  0.24357501    -0.26500
C817        C  0.80609375  0.19526356  0.19961428    -0.15700
C818        C  0.78031186  0.22612210  0.18141632     0.36600
N819        N  0.77881302  0.23105920  0.13696547    -0.90000
H820        H  0.73922306  0.27710307  0.19053306     0.17700
H821        H  0.82647927  0.17078914  0.25979671     0.17700
N822        N  0.78556744  0.21492143  0.31320684    -0.89000
H823        H  0.78812755  0.26149211  0.12963378     0.35100
H824        H  0.74759957  0.22735775  0.12744167     0.40200
H825        H  0.81677274  0.22081648  0.32162422     0.39800
H826        H  0.77857625  0.18412288  0.32146603     0.34700
C827        C  0.14488078  0.24471669  0.18516353    -0.27000
C828        C  0.14434588  0.20089741  0.18763784    -0.15100
C829        C  0.17191840  0.18173427  0.21640548     0.35500
C830        C  0.19722711  0.20601101  0.24276423    -0.26500
C831        C  0.19452848  0.25008312  0.24360470    -0.15700
C832        C  0.16923000  0.26904419  0.21224444     0.36600
N833        N  0.16731489  0.31345278  0.20801274    -0.90000
H834        H  0.12638840  0.26138483  0.16253961     0.17700
H835        H  0.21898747  0.18928919  0.26243317     0.17700
N836        N  0.17440366  0.13718452  0.21911578    -0.89000
H837        H  0.13596794  0.32296521  0.21088182     0.35100
H838        H  0.17761399  0.32134313  0.17798313     0.40200
H839        H  0.16681395  0.12833762  0.24967337     0.39800
H840        H  0.20551640  0.12828266  0.21325589     0.34700
C841        C  0.21541136  0.32856675  0.33412420    -0.27000
C842        C  0.19326154  0.30381298  0.30529114    -0.15100
C843        C  0.14856438  0.30427658  0.30819386     0.35500
C844        C  0.12848669  0.33326931  0.33428230    -0.26500
C845        C  0.15092519  0.36031562  0.36068262    -0.15700
C846        C  0.19543705  0.35672141  0.36085977     0.36600
N847        N  0.22161556  0.38151814  0.38697755    -0.90000
H848        H  0.24951525  0.32772705  0.33432866     0.17700
H849        H  0.09436830  0.33379188  0.33474037     0.17700
N850        N  0.12289002  0.27420404  0.28738778    -0.89000
H851        H  0.23951835  0.36160079  0.40580405     0.35100
H852        H  0.24216599  0.39866424  0.36800420     0.40200
H853        H  0.10071313  0.29014057  0.26928759     0.39800
H854        H  0.10642584  0.25717339  0.31001504     0.34700
C855        C  0.14907448  0.75581363  0.74614657    -0.27000
C856        C  0.19360702  0.75184653  0.74638513    -0.15100
C857        C  0.21138445  0.72604975  0.71460600     0.35500
C858        C  0.18540994  0.70274158  0.68842780    -0.26500
C859        C  0.14108241  0.70500902  0.69008842    -0.15700
C860        C  0.12323048  0.73232461  0.71957659     0.36600
N861        N  0.07844276  0.73628850  0.72302396    -0.90000
H862        H  0.13310893  0.77776851  0.76603741     0.17700
H863        H  0.20162759  0.68262571  0.66707728     0.17700
N864        N  0.25581771  0.72230180  0.70731781    -0.89000
H865        H  0.07050829  0.76755174  0.71798983     0.35100
H866        H  0.06975129  0.72840789  0.75355040     0.40200
H867        H  0.27176953  0.71491574  0.73469250     0.39800
H868        H  0.26728502  0.74993041  0.69432985     0.34700
C869        C  0.17176844  0.72175151  0.28615789    -0.27000
C870        C  0.19623319  0.75200489  0.30685523    -0.15100
C871        C  0.19516065  0.75097655  0.35145478     0.35500
C872        C  0.16570021  0.72577529  0.37228266    -0.26500
C873        C  0.13946351  0.69780849  0.35109692    -0.15700
C874        C  0.14584586  0.69335651  0.30743063     0.36600
N875        N  0.12917183  0.65860164  0.28475998    -0.90000
H876        H  0.17395765  0.71943585  0.25250457     0.17700
H877        H  0.16464068  0.72682912  0.40609142     0.17700
N878        N  0.22516542  0.77260395  0.37659106    -0.89000
H879        H  0.14372054  0.63169779  0.29633612     0.35100
H880        H  0.13687458  0.66034684  0.25304156     0.40200
H881        H  0.24200578  0.75062760  0.39403546     0.39800
H882        H  0.20880225  0.79162814  0.39754800     0.34700
C883        C  0.21691340  0.33391130  0.71977771    -0.27000
C884        C  0.19584432  0.31016436  0.75061390    -0.15100
C885        C  0.15255356  0.31992752  0.75736729     0.35500
C886        C  0.13142193  0.34721251  0.73023392    -0.26500
C887        C  0.15209350  0.36889642  0.69795059    -0.15700
C888        C  0.19558581  0.36078035  0.69223800     0.36600
N889        N  0.21829254  0.37712477  0.65724041    -0.90000
H890        H  0.25035120  0.32952371  0.71505113     0.17700
H891        H  0.09800341  0.35177840  0.73514754     0.17700
N892        N  0.12979620  0.30475134  0.79294663    -0.89000
H893        H  0.23004526  0.35208096  0.63992760     0.35100
H894        H  0.24388495  0.39417580  0.66847831     0.40200
H895        H  0.10308759  0.28896268  0.78241358     0.39800
H896        H  0.11970410  0.33034691  0.81045697     0.34700
C897        C  0.81620772  0.72350724  0.71342197    -0.27000
C898        C  0.79526751  0.69390889  0.68857560    -0.15100
C899        C  0.75063968  0.69607994  0.68813999     0.35500
C900        C  0.72919789  0.72147637  0.71692573    -0.26500
C901        C  0.75016248  0.74789289  0.74529813    -0.15700
C902        C  0.79445754  0.75174801  0.73944115     0.36600
N903        N  0.81752188  0.78595999  0.75651915    -0.90000
H904        H  0.85017482  0.72590255  0.71138613     0.17700
H905        H  0.69519928  0.72030644  0.71709089     0.17700
N906        N  0.72624408  0.67513874  0.65725993    -0.89000
H907        H  0.82999168  0.80333934  0.73173410     0.35100
H908        H  0.84275400  0.77403367  0.77371321     0.40200
H909        H  0.70464888  0.65573111  0.67251309     0.39800
H910        H  0.70934176  0.69752981  0.64039678     0.34700
C911        C  0.79378801  0.74502190  0.30818733    -0.27000
C912        C  0.74949507  0.74689491  0.31154658    -0.15100
C913        C  0.73029243  0.72146837  0.34267875     0.35500
C914        C  0.75440952  0.69285565  0.36565082    -0.26500
C915        C  0.79791859  0.68805020  0.35861562    -0.15700
C916        C  0.81743259  0.71502301  0.32955893     0.36600
N917        N  0.86184956  0.71251436  0.32194544    -0.90000
H918        H  0.81115578  0.76615969  0.28848204     0.17700
H919        H  0.73794357  0.67463027  0.38871582     0.17700
N920        N  0.68574465  0.72295130  0.34969666    -0.89000
H921        H  0.87519928  0.74147337  0.32879776     0.35100
H922        H  0.86647937  0.70666734  0.29017281     0.40200
H923        H  0.67333175  0.69301462  0.34453631     0.39800
H924        H  0.68051589  0.73062691  0.38076443     0.34700
C925        C  0.81465500  0.35109307  0.31369766    -0.27000
C926        C  0.81505311  0.34708324  0.35760176    -0.15100
C927        C  0.78694512  0.31807494  0.37561048     0.35500
C928        C  0.75846582  0.29597534  0.35046210    -0.26500
C929        C  0.75616489  0.30190910  0.30656075    -0.15700
C930        C  0.78675477  0.32862464  0.28851247     0.36600
N931        N  0.78960647  0.33352659  0.24410465    -0.90000
H932        H  0.83504398  0.37231544  0.29742395     0.17700
H933        H  0.73906434  0.27316142  0.36614939     0.17700
N934        N  0.78721161  0.31058692  0.41973192    -0.89000
H935        H  0.81978865  0.32446906  0.23471199     0.35100
H936        H  0.78592451  0.36514062  0.23684256     0.40200
H937        H  0.79358955  0.27894483  0.42470382     0.39800
H938        H  0.75714073  0.31686647  0.43141951     0.34700
C939        C  0.80919367  0.30932865  0.69502425    -0.27000
C940        C  0.80961942  0.35324956  0.69682807    -0.15100
C941        C  0.77802627  0.37278791  0.72086859     0.35500
C942        C  0.74955280  0.34890768  0.74442203    -0.26500
C943        C  0.75175628  0.30479404  0.74635421    -0.15700
C944        C  0.78041096  0.28537822  0.71835567     0.36600
N945        N  0.78094533  0.24095026  0.71377667    -0.90000
H946        H  0.83022897  0.29250846  0.67478150     0.17700
H947        H  0.72523820  0.36595192  0.76061574     0.17700
N948        N  0.77394305  0.41730940  0.72075601    -0.89000
H949        H  0.81118783  0.23013069  0.72069399     0.35100
H950        H  0.77471495  0.23402614  0.68252387     0.40200
H951        H  0.77644715  0.42774526  0.75152734     0.39800
H952        H  0.74386040  0.42487447  0.70992424     0.34700
C953        C  0.62930228  0.82427884  0.71213832    -0.27000
C954        C  0.64931304  0.85781118  0.69182165    -0.15100
C955        C  0.69337870  0.86250799  0.69854324     0.35500
C956        C  0.71525939  0.83308765  0.72308089    -0.26500
C957        C  0.69468433  0.80163935  0.74628519    -0.15700
C958        C  0.65112965  0.79560442  0.73738167     0.36600
N959        N  0.62898542  0.75898576  0.75067721    -0.90000
H960        H  0.59590719  0.81937372  0.70745859     0.17700
H961        H  0.74892995  0.83666325  0.72677991     0.17700
N962        N  0.71602738  0.89812808  0.68331214    -0.89000
H963        H  0.61852958  0.74322115  0.72412656     0.35100
H964        H  0.60244615  0.76829916  0.76761474     0.40200
H965        H  0.74810901  0.89600274  0.69013631     0.39800
H966        H  0.70467192  0.92416100  0.69941393     0.34700
C967        C  0.25776979  0.85947988  0.69645234    -0.27000
C968        C  0.30205803  0.85851898  0.69873336    -0.15100
C969        C  0.32046756  0.83024132  0.72709644     0.35500
C970        C  0.29520616  0.80326485  0.75097870    -0.26500
C971        C  0.25060214  0.80509630  0.75005611    -0.15700
C972        C  0.23239682  0.83350495  0.72109591     0.36600
N973        N  0.18758575  0.83678974  0.71695937    -0.90000
H974        H  0.24130919  0.88043620  0.67601799     0.17700
H975        H  0.31169456  0.78011907  0.76906801     0.17700
N976        N  0.36528851  0.82849078  0.73166360    -0.89000
H977        H  0.17970178  0.83015011  0.68602623     0.35100
H978        H  0.17871115  0.86757048  0.72314869     0.40200
H979        H  0.37524327  0.79818578  0.72485404     0.39800
H980        H  0.37249363  0.83461938  0.76287955     0.34700
C981        C  0.25798586  0.86894987  0.35402145    -0.27000
C982        C  0.30178861  0.86327540  0.35796486    -0.15100
C983        C  0.32119978  0.83355919  0.33113417     0.35500
C984        C  0.29669948  0.80918413  0.30459571    -0.26500
C985        C  0.25235224  0.81104458  0.30462816    -0.15700
C986        C  0.23350091  0.84381374  0.32789836     0.36600
N987        N  0.18897979  0.85093877  0.32633016    -0.90000
H988        H  0.24153343  0.89298750  0.37076190     0.17700
H989        H  0.31351888  0.78869561  0.28379322     0.17700
N990        N  0.36586949  0.82705284  0.32921582    -0.89000
H991        H  0.18393941  0.88140057  0.31566807     0.35100
H992        H  0.17675344  0.84865731  0.35656120     0.40200
H993        H  0.37706196  0.81593563  0.35768869     0.39800
H994        H  0.38121685  0.85456024  0.32090746     0.34700
C995        C  0.68428092  0.85413666  0.36490784    -0.27000
C996        C  0.64069892  0.85833210  0.35730931    -0.15100
C997        C  0.62295605  0.83079970  0.32733802     0.35500
C998        C  0.64854935  0.80238563  0.30577441    -0.26500
C999        C  0.69289505  0.80160611  0.30995473    -0.15700
C1000       C  0.71000794  0.82687087  0.34200841     0.36600
N1001       N  0.75417842  0.82576629  0.35100247    -0.90000
H1002       H  0.69975134  0.87127963  0.38915441     0.17700
H1003       H  0.63238062  0.78092417  0.28566605     0.17700
N1004       N  0.57892100  0.83024152  0.31755625    -0.89000
H1005       H  0.75792353  0.81700114  0.38222699     0.35100
H1006       H  0.76632111  0.85586427  0.34728860     0.40200
H1007       H  0.57018506  0.85835249  0.30372943     0.39800
H1008       H  0.56108618  0.82489173  0.34441917     0.34700
C1009       C  0.29209561  0.25293887  0.30825963    -0.27000
C1010       C  0.24777732  0.24914342  0.30544812    -0.15100
C1011       C  0.22830248  0.22143987  0.33445392     0.35500
C1012       C  0.25261537  0.19665546  0.36148444    -0.26500
C1013       C  0.29689344  0.19852736  0.36159405    -0.15700
C1014       C  0.31637249  0.22720018  0.33421990     0.36600
N1015       N  0.36133815  0.23053235  0.33263206    -0.90000
H1016       H  0.30911935  0.27649608  0.29115273     0.17700
H1017       H  0.23570931  0.17577430  0.38181874     0.17700
N1018       N  0.18338636  0.21814536  0.33665652    -0.89000
H1019       H  0.36960717  0.26123135  0.33975868     0.35100
H1020       H  0.37109111  0.22439755  0.30205572     0.40200
H1021       H  0.17389958  0.22600843  0.36691025     0.39800
H1022       H  0.17501264  0.18709042  0.33141040     0.34700
C1023       C  0.24606218  0.24480685  0.70708074    -0.27000
C1024       C  0.24914476  0.24745747  0.75099135    -0.15100
C1025       C  0.27670374  0.21878608  0.77104694     0.35500
C1026       C  0.30240337  0.19208667  0.74757991    -0.26500
C1027       C  0.30185287  0.19243831  0.70369337    -0.15700
C1028       C  0.27236691  0.21867565  0.68364617     0.36600
N1029       N  0.26889960  0.21895140  0.63904234    -0.90000
H1030       H  0.22268876  0.26227698  0.69003433     0.17700
H1031       H  0.32267962  0.17142847  0.76480578     0.17700
N1032       N  0.27957906  0.21728620  0.81565067    -0.89000
H1033       H  0.23802898  0.21098252  0.63120184     0.35100
H1034       H  0.27452206  0.24933515  0.62845976     0.40200
H1035       H  0.31073665  0.22324685  0.82413701     0.39800
H1036       H  0.27196409  0.18707492  0.82546268     0.34700
C1037       C  0.69091637  0.20650514  0.30279159    -0.27000
C1038       C  0.69361886  0.25037503  0.30569027    -0.15100
C1039       C  0.66503051  0.27030052  0.33342511     0.35500
C1040       C  0.63796673  0.24671618  0.35899546    -0.26500
C1041       C  0.63771654  0.20280769  0.35793852    -0.15700
C1042       C  0.66453561  0.18297382  0.32889196     0.36600
N1043       N  0.66510621  0.13842034  0.32555777    -0.90000
H1044       H  0.70878017  0.18945182  0.27982702     0.17700
H1045       H  0.61748201  0.26382118  0.37954531     0.17700
N1046       N  0.66382546  0.31487425  0.33637420    -0.89000
H1047       H  0.65730388  0.13048919  0.29491370     0.35100
H1048       H  0.69579815  0.12812468  0.33128319     0.40200
H1049       H  0.63336648  0.32482019  0.32903927     0.39800
H1050       H  0.66998135  0.32320433  0.36727765     0.34700
C1051       C  0.64295628  0.24313553  0.69046476    -0.27000
C1052       C  0.64316958  0.19923682  0.69383147    -0.15100
C1053       C  0.67284405  0.18113274  0.72105714     0.35500
C1054       C  0.69804024  0.20635229  0.74657383    -0.26500
C1055       C  0.69493732  0.25051942  0.74649496    -0.15700
C1056       C  0.66843277  0.26844299  0.71565367     0.36600
N1057       N  0.66686825  0.31275062  0.70980053    -0.90000
H1058       H  0.62387213  0.25905022  0.66777411     0.17700
H1059       H  0.72090157  0.19030057  0.76558711     0.17700
N1060       N  0.67804037  0.13675918  0.72264437    -0.89000
H1061       H  0.63570729  0.32259685  0.71371008     0.35100
H1062       H  0.67580109  0.31936164  0.67906596     0.40200
H1063       H  0.70926884  0.12983212  0.71492526     0.39800
H1064       H  0.67271424  0.12688414  0.75334201     0.34700
C1065       C  0.27107471  0.68124221  0.83934759    -0.27000
C1066       C  0.30163185  0.70110201  0.86394946    -0.15100
C1067       C  0.30408679  0.74535014  0.86076126     0.35500
C1068       C  0.27556419  0.76735075  0.83577264    -0.26500
C1069       C  0.24784767  0.74756150  0.80799975    -0.15700
C1070       C  0.24426653  0.70331536  0.81212418     0.36600
N1071       N  0.21245300  0.68013863  0.79083675    -0.90000
H1072       H  0.26774525  0.64765387  0.84135103     0.17700
H1073       H  0.27765271  0.80109818  0.83550938     0.17700
N1074       N  0.33633683  0.76913281  0.88040340    -0.89000
H1075       H  0.19374498  0.66505100  0.81313155     0.35100
H1076       H  0.22723428  0.65720577  0.77286759     0.40200
H1077       H  0.35337525  0.78497330  0.85728316     0.39800
H1078       H  0.32214013  0.79122041  0.89981628     0.34700
C1079       C  0.66958826  0.68138857  0.83891463    -0.27000
C1080       C  0.63903091  0.70238007  0.86282377    -0.15100
C1081       C  0.63575588  0.74612167  0.85721962     0.35500
C1082       C  0.66439551  0.76726443  0.83115111    -0.26500
C1083       C  0.69434148  0.74629134  0.80611435    -0.15700
C1084       C  0.69752529  0.70224121  0.81189277     0.36600
N1085       N  0.73010774  0.67801348  0.79275089    -0.90000
H1086       H  0.67250031  0.64782254  0.84171087     0.17700
H1087       H  0.66123941  0.80080058  0.82822726     0.17700
N1088       N  0.60196190  0.76952820  0.87507163    -0.89000
H1089       H  0.71594901  0.65460075  0.77503042     0.35100
H1090       H  0.74761732  0.66348879  0.81627713     0.40200
H1091       H  0.58490447  0.78338104  0.85082577     0.39800
H1092       H  0.61484116  0.79328675  0.89328366     0.34700
C1093       C  0.69097286  0.36269467  0.85791416    -0.27000
C1094       C  0.64677962  0.36465639  0.85522216    -0.15100
C1095       C  0.62687521  0.33726341  0.82699092     0.35500
C1096       C  0.65065429  0.30873620  0.80337074    -0.26500
C1097       C  0.69516800  0.30797938  0.80449710    -0.15700
C1098       C  0.71485009  0.33498799  0.83362657     0.36600
N1099       N  0.75972091  0.33511195  0.83818097    -0.90000
H1100       H  0.70831280  0.38249941  0.87866377     0.17700
H1101       H  0.63327057  0.28696020  0.78455383     0.17700
N1102       N  0.58201957  0.33785606  0.82244731    -0.89000
H1103       H  0.76680135  0.32783393  0.86922162     0.35100
H1104       H  0.77071566  0.36523683  0.83200755     0.40200
H1105       H  0.57053397  0.30813623  0.82965438     0.39800
H1106       H  0.57510631  0.34415237  0.79116415     0.34700
C1107       C  0.23204152  0.33135164  0.83634752    -0.27000
C1108       C  0.25108805  0.30771565  0.80447967    -0.15100
C1109       C  0.29476780  0.31554447  0.79703844     0.35500
C1110       C  0.31784964  0.34129766  0.82416429    -0.26500
C1111       C  0.29907789  0.36216865  0.85795515    -0.15700
C1112       C  0.25550950  0.35480449  0.86495545     0.36600
N1113       N  0.23490528  0.36771428  0.90251030    -0.90000
H1114       H  0.19845267  0.32878269  0.84149975     0.17700
H1115       H  0.35112043  0.34545295  0.81803533     0.17700
N1116       N  0.31593109  0.30008605  0.76071533    -0.89000
H1117       H  0.22360470  0.34113164  0.91787210     0.35100
H1118       H  0.20902704  0.38616843  0.89435579     0.40200
H1119       H  0.34197318  0.28263018  0.77041585     0.39800
H1120       H  0.32700452  0.32554744  0.74343276     0.34700
C1121       C  0.27532550  0.37121185  0.21633362    -0.27000
C1122       C  0.30660047  0.35070480  0.19312209    -0.15100
C1123       C  0.30880540  0.30659199  0.19699962     0.35500
C1124       C  0.27874384  0.28500967  0.22079436    -0.26500
C1125       C  0.24919855  0.30544424  0.24644161    -0.15700
C1126       C  0.24656821  0.34984075  0.24194282     0.36600
N1127       N  0.21331815  0.37391259  0.26021428    -0.90000
H1128       H  0.27246005  0.40482874  0.21390986     0.17700
H1129       H  0.28071336  0.25126587  0.22185002     0.17700
N1130       N  0.34244965  0.28280321  0.17951108    -0.89000
H1131       H  0.19670140  0.38883226  0.23631178     0.35100
H1132       H  0.22683450  0.39702675  0.27882111     0.40200
H1133       H  0.32961059  0.26029797  0.15974518     0.39800
H1134       H  0.35809862  0.26741995  0.20378870     0.34700
C1135       C  0.66898516  0.67849588  0.22536483    -0.27000
C1136       C  0.64079382  0.69857334  0.19852140    -0.15100
C1137       C  0.64471259  0.74260730  0.19426625     0.35500
C1138       C  0.67119800  0.76488097  0.22106163    -0.26500
C1139       C  0.69622101  0.74519178  0.25150625    -0.15700
C1140       C  0.69799125  0.70051761  0.24962913     0.36600
N1141       N  0.73109528  0.67669793  0.26841797    -0.90000
H1142       H  0.67011118  0.64470102  0.22594751     0.17700
H1143       H  0.67201107  0.79856303  0.21817142     0.17700
N1144       N  0.62440872  0.76540546  0.16161601    -0.89000
H1145       H  0.71744138  0.65383162  0.28776339     0.35100
H1146       H  0.74765523  0.66143527  0.24494497     0.40200
H1147       H  0.60567044  0.78850774  0.17524488     0.39800
H1148       H  0.64752103  0.78009493  0.14351301     0.34700
C1149       C  0.64308977  0.31164423  0.19486166    -0.27000
C1150       C  0.64623604  0.35539667  0.19449547    -0.15100
C1151       C  0.67257640  0.37390897  0.22482920     0.35500
C1152       C  0.69643987  0.34899523  0.25236879    -0.26500
C1153       C  0.69601692  0.30494494  0.25039739    -0.15700
C1154       C  0.66669359  0.28676857  0.22234515     0.36600
N1155       N  0.66141046  0.24242783  0.22073518    -0.90000
H1156       H  0.62173605  0.29556996  0.17451092     0.17700
H1157       H  0.71487762  0.36491390  0.27563806     0.17700
N1158       N  0.67481556  0.41837878  0.22833084    -0.89000
H1159       H  0.66787863  0.23246842  0.19034180     0.35100
H1160       H  0.62990754  0.23562523  0.22735665     0.40200
H1161       H  0.66558052  0.42657214  0.25856962     0.39800
H1162       H  0.70619582  0.42732734  0.22430031     0.34700
C1163       C  0.30237196  0.68975767  0.24949372    -0.27000
C1164       C  0.30059303  0.68874581  0.20558801    -0.15100
C1165       C  0.27167659  0.71565897  0.18569696     0.35500
C1166       C  0.24809448  0.74440357  0.20895392    -0.26500
C1167       C  0.25232064  0.74826335  0.25277224    -0.15700
C1168       C  0.27851642  0.71835391  0.27290512     0.36600
N1169       N  0.28119737  0.71684351  0.31753094    -0.90000
H1170       H  0.32197647  0.66844749  0.26672654     0.17700
H1171       H  0.22566853  0.76288413  0.19171095     0.17700
N1172       N  0.26590465  0.71391221  0.14137660    -0.89000
H1173       H  0.27146321  0.68726928  0.32744832     0.35100
H1174       H  0.31269973  0.72056907  0.32605265     0.40200
H1175       H  0.27252801  0.74336645  0.12892378     0.39800
H1176       H  0.23426165  0.70722521  0.13551729     0.34700
loop_ 
_geom_bond_atom_site_label_1 
_geom_bond_atom_site_label_2 
_geom_bond_distance 
_geom_bond_site_symmetry_2 
_ccdc_geom_bond_type 
C1            C2   1.574       .  S
C1            C7   1.569       .  S
C1            C5   1.567       .  S
C1         C1164   1.539       .  S
C2            H9   1.081       .  S
C2            C3   1.363       .  D
C3            C4   1.522       .  S
C3           C62   1.491       .  S
C4            C8   1.524       .  S
C4            C6   1.520       .  S
C4           H10   1.102       .  S
C5           H11   1.085       .  S
C5            C6   1.363       .  D
C6          C135   1.488       .  S
C7           H12   1.085       .  S
C7            C8   1.366       .  D
C8          C124   1.493       .  S
C13          C14   1.572       .  S
C13          C19   1.580       .  S
C13          C17   1.561       .  S
C13        C1150   1.545       .  S
C14          H21   1.085       .  S
C14          C15   1.370       .  D
C15          C16   1.528       .  S
C15         C149   1.498       .  S
C16          C20   1.521       .  S
C16          C18   1.523       .  S
C16          H22   1.103       .  S
C17          H23   1.086       .  S
C17          C18   1.360       .  D
C18          C61   1.486       .  S
C19          H24   1.081       .  S
C19          C20   1.366       .  D
C20         C166   1.499       .  S
C25          C26   1.570       .  S
C25          C31   1.578       .  S
C25          C29   1.560       .  S
C25        C1136   1.537       .  S
C26          H33   1.085       .  S
C26          C27   1.364       .  D
C27          C28   1.522       .  S
C27         C151   1.495       .  S
C28          C32   1.527       .  S
C28          C30   1.519       .  S
C28          H34   1.102       .  S
C29          H35   1.078       .  S
C29          C30   1.349       .  D
C30         C138   1.470       .  S
C31          H36   1.085       .  S
C31          C32   1.373       .  D
C32          C59   1.502       .  S
C37          C38   1.569       .  S
C37          C43   1.572       .  S
C37          C41   1.572       .  S
C37        C1122   1.545       .  S
C38          H45   1.075       .  S
C38          C39   1.355       .  D
C39          C40   1.520       .  S
C39         C164   1.478       .  S
C40          C44   1.525       .  S
C40          C42   1.524       .  S
C40          H46   1.103       .  S
C41          H47   1.085       .  S
C41          C42   1.368       .  D
C42          C60   1.498       .  S
C43          H48   1.086       .  S
C43          C44   1.365       .  D
C44         C121   1.495       .  S
O49          V57   1.966       .  S
O49          C59   1.279       .  A
O50          V57   1.962       .  S
O50          C60   1.279       .  A
O51          V57   1.952       .  S
O51          C61   1.277       .  A
O52          V57   1.953       .  S
O52          C62   1.276       .  A
O53          V58   1.857       .  S
O53          C62   1.257       .  A
O54          V58   1.855       .  S
O54          C61   1.256       .  A
O55          V58   1.857       .  S
O55          C60   1.257       .  A
O56          V58   1.856       .  S
O56          C59   1.257       .  A
V57          V58   2.040       .  T
C63          C64   1.572       .  S
C63          C69   1.576       .  S
C63          C67   1.567       .  S
C63        C1111   1.550       .  S
C64          H71   1.085       .  S
C64          C65   1.371       .  D
C65          C66   1.523       .  S
C65         C165   1.502       .  S
C66          C70   1.526       .  S
C66          C68   1.522       .  S
C66          H72   1.103       .  S
C67          H73   1.079       .  S
C67          C68   1.355       .  D
C68         C123   1.486       .  S
C69          H74   1.085       .  S
C69          C70   1.369       .  D
C70         C177   1.498       .  S
C75          C76   1.572       .  S
C75          C81   1.565       .  S
C75          C79   1.576       .  S
C75        C1094   1.543       .  S
C76          H83   1.085       .  S
C76          C77   1.370       .  D
C77          C78   1.527       .  S
C77         C179   1.500       .  S
C78          C82   1.523       .  S
C78          C80   1.522       .  S
C78          H84   1.103       .  S
C79          H85   1.080       .  S
C79          C80   1.360       .  D
C80         C152   1.493       .  S
C81          H86   1.085       .  S
C81          C82   1.361       .  D
C82         C163   1.485       .  S
C87          C88   1.574       .  S
C87          C93   1.567       .  S
C87          C91   1.569       .  S
C87        C1080   1.546       .  S
C88          H95   1.079       .  S
C88          C89   1.364       .  D
C89          C90   1.520       .  S
C89         C136   1.489       .  S
C90          C94   1.523       .  S
C90          C92   1.525       .  S
C90          H96   1.104       .  S
C91          H97   1.085       .  S
C91          C92   1.362       .  D
C92         C150   1.488       .  S
C93          H98   1.085       .  S
C93          C94   1.365       .  D
C94         C178   1.495       .  S
C99         C100   1.576       .  S
C99         C105   1.572       .  S
C99         C103   1.567       .  S
C99        C1066   1.550       .  S
C100        H107   1.085       .  S
C100        C101   1.371       .  D
C101        C102   1.524       .  S
C101        C122   1.500       .  S
C102        C106   1.524       .  S
C102        C104   1.516       .  S
C102        H108   1.103       .  S
C103        H109   1.072       .  S
C103        C104   1.350       .  D
C104        C137   1.472       .  S
C105        H110   1.085       .  S
C105        C106   1.368       .  D
C106        C180   1.498       .  S
O111        V119   1.959       .  S
O111        C121   1.278       .  A
O112        V119   1.962   1_556  S
O112        C122   1.277       .  A
O113        V119   1.951   1_556  S
O113        C123   1.278       .  A
O114        V119   1.959       .  S
O114        C124   1.278       .  A
O115        V120   1.851       .  S
O115        C124   1.255       .  A
O116        V120   1.855   1_556  S
O116        C123   1.255       .  A
O117        V120   1.861       .  S
O117        C122   1.259   1_554  A
O118        V120   1.859       .  S
O118        C121   1.258       .  A
V119        V120   2.040       .  T
O125        V133   1.950       .  S
O125        C135   1.275       .  A
O126        V133   1.948   1_556  S
O126        C136   1.275       .  A
O127        V133   1.939   1_556  S
O127        C137   1.275       .  A
O128        V133   1.937       .  S
O128        C138   1.274       .  A
O129        V134   1.846       .  S
O129        C138   1.253       .  A
O130        V134   1.845   1_556  S
O130        C137   1.253       .  A
O131        V134   1.861       .  S
O131        C136   1.259   1_554  A
O132        V134   1.856       .  S
O132        C135   1.258       .  A
V133        V134   2.049       .  T
O139        V147   1.963       .  S
O139        C149   1.278       .  A
O140        V147   1.956   1_556  S
O140        C150   1.278       .  A
O141        V147   1.961       .  S
O141        C151   1.279       .  A
O142        V147   1.955   1_556  S
O142        C152   1.278       .  A
O143        V148   1.860       .  S
O143        C152   1.257   1_554  A
O144        V148   1.855       .  S
O144        C151   1.256       .  A
O145        V148   1.852   1_556  S
O145        C150   1.256       .  A
O146        V148   1.855       .  S
O146        C149   1.256       .  A
V147        V148   2.038       .  T
O153        V161   1.950   1_556  S
O153        C163   1.275       .  A
O154        V161   1.944       .  S
O154        C164   1.275       .  A
O155        V161   1.963   1_556  S
O155        C165   1.278       .  A
O156        V161   1.958       .  S
O156        C166   1.277       .  A
O157        V162   1.864       .  S
O157        C166   1.259       .  A
O158        V162   1.860   1_556  S
O158        C165   1.258       .  A
O159        V162   1.848       .  S
O159        C164   1.254       .  A
O160        V162   1.850   1_556  S
O160        C163   1.255       .  A
V161        V162   2.048       .  T
O167        V175   1.963       .  S
O167        C177   1.278       .  A
O168        V175   1.958       .  S
O168        C178   1.278       .  A
O169        V175   1.965       .  S
O169        C179   1.280       .  A
O170        V175   1.960       .  S
O170        C180   1.278       .  A
O171        V176   1.858       .  S
O171        C180   1.257       .  A
O172        V176   1.856       .  S
O172        C179   1.257       .  A
O173        V176   1.859       .  S
O173        C178   1.258       .  A
O174        V176   1.858       .  S
O174        C177   1.257       .  A
V175        V176   2.038       .  T
C181        C182   1.573       .  S
C181        C187   1.569       .  S
C181        C185   1.568       .  S
C181       C1052   1.542       .  S
C182        H189   1.085       .  S
C182        C183   1.369       .  D
C183        C184   1.526       .  S
C183        C316   1.499       .  S
C184        C188   1.523       .  S
C184        C186   1.525       .  S
C184        H190   1.103       .  S
C185        H191   1.085       .  S
C185        C186   1.366       .  D
C186        C303   1.492       .  S
C187        H192   1.080       .  S
C187        C188   1.355       .  D
C188        C242   1.485       .  S
C193        C194   1.573       .  S
C193        C199   1.569       .  S
C193        C197   1.571       .  S
C193       C1041   1.537       .  S
C194        H201   1.081       .  S
C194        C195   1.361       .  D
C195        C196   1.523       .  S
C195        C239   1.494       .  S
C196        C200   1.525       .  S
C196        C198   1.521       .  S
C196        H202   1.102       .  S
C197        H203   1.085       .  S
C197        C198   1.366       .  D
C198        C301   1.490       .  S
C199        H204   1.085       .  S
C199        C200   1.363       .  D
C200        C343   1.494       .  S
C205        C206   1.574       .  S
C205        C211   1.565       .  S
C205        C209   1.567       .  S
C205       C1027   1.532       .  S
C206        H213   1.081       .  S
C206        C207   1.361       .  D
C207        C208   1.524       .  S
C207        C317   1.490       .  S
C208        C212   1.525       .  S
C208        C210   1.522       .  S
C208        H214   1.103       .  S
C209        H215   1.085       .  S
C209        C210   1.363       .  D
C210        C240   1.488       .  S
C211        H216   1.085       .  S
C211        C212   1.362       .  D
C212        C332   1.487       .  S
C217        C218   1.573       .  S
C217        C223   1.571       .  S
C217        C221   1.569       .  S
C217       C1013   1.537       .  S
C218        H225   1.085       .  S
C218        C219   1.366       .  D
C219        C220   1.523       .  S
C219        C241   1.491       .  S
C220        C224   1.521       .  S
C220        C222   1.524       .  S
C220        H226   1.101       .  S
C221        H227   1.085       .  S
C221        C222   1.363       .  D
C222        C345   1.497       .  S
C223        H228   1.080       .  S
C223        C224   1.360       .  D
C224        C329   1.489       .  S
O229        V237   1.855       .  S
O229        C239   1.257       .  A
O230        V237   1.856       .  S
O230        C240   1.258       .  A
O231        V237   1.845       .  S
O231        C241   1.254       .  A
O232        V237   1.851       .  S
O232        C242   1.254       .  A
O233        V238   1.951       .  S
O233        C242   1.278       .  A
O234        V238   1.960       .  S
O234        C241   1.277       .  A
O235        V238   1.951       .  S
O235        C240   1.275       .  A
O236        V238   1.955       .  S
O236        C239   1.277       .  A
V237        V238   2.043       .  T
C243        C244   1.577       .  S
C243        C249   1.569       .  S
C243        C247   1.576       .  S
C243        C996   1.551       .  S
C244        H251   1.084       .  S
C244        C245   1.371       .  D
C245        C246   1.526       .  S
C245        C346   1.504       .  S
C246        C250   1.520       .  S
C246        C248   1.522       .  S
C246        H252   1.100       .  S
C247        H253   1.080       .  S
C247        C248   1.358       .  D
C248        C304   1.492       .  S
C249        H254   1.085       .  S
C249        C250   1.362       .  D
C250        C359   1.493       .  S
C255        C256   1.577       .  S
C255        C261   1.569       .  S
C255        C259   1.561       .  S
C255        C982   1.537       .  S
C256        H263   1.081       .  S
C256        C257   1.363       .  D
C257        C258   1.523       .  S
C257        C331   1.483       .  S
C258        C262   1.526       .  S
C258        C260   1.526       .  S
C258        H264   1.104       .  S
C259        H265   1.086       .  S
C259        C260   1.357       .  D
C260        C344   1.487       .  S
C261        H266   1.085       .  S
C261        C262   1.364       .  D
C262        C358   1.500       .  S
C267        C268   1.571       .  S
C267        C273   1.567       .  S
C267        C271   1.570       .  S
C267        C968   1.538       .  S
C268        H275   1.085       .  S
C268        C269   1.368       .  D
C269        C270   1.525       .  S
C269        C360   1.496       .  S
C270        C274   1.519       .  S
C270        C272   1.526       .  S
C270        H276   1.103       .  S
C271        H277   1.085       .  S
C271        C272   1.367       .  D
C272        C315   1.497       .  S
C273        H278   1.079       .  S
C273        C274   1.352       .  D
C274        C330   1.477       .  S
C279        C280   1.575       .  S
C279        C285   1.571       .  S
C279        C283   1.572       .  S
C279        C954   1.552       .  S
C280        H287   1.085       .  S
C280        C281   1.367       .  D
C281        C282   1.526       .  S
C281        C357   1.499       .  S
C282        C286   1.524       .  S
C282        C284   1.520       .  S
C282        H288   1.102       .  S
C283        H289   1.077       .  S
C283        C284   1.359       .  D
C284        C302   1.489       .  S
C285        H290   1.085       .  S
C285        C286   1.367       .  D
C286        C318   1.499       .  S
O291        V299   1.851       .  S
O291        C301   1.256       .  A
O292        V299   1.856       .  S
O292        C302   1.257   1_545  A
O293        V299   1.853       .  S
O293        C303   1.256       .  A
O294        V299   1.849   1_565  S
O294        C304   1.254       .  A
O295        V300   1.957   1_565  S
O295        C304   1.278       .  A
O296        V300   1.956       .  S
O296        C303   1.277       .  A
O297        V300   1.949   1_565  S
O297        C302   1.276       .  A
O298        V300   1.953       .  S
O298        C301   1.275       .  A
V299        V300   2.049       .  T
O305        V313   1.964   1_565  S
O305        C315   1.279       .  A
O306        V313   1.963       .  S
O306        C316   1.278       .  A
O307        V313   1.955       .  S
O307        C317   1.278       .  A
O308        V313   1.964   1_565  S
O308        C318   1.279       .  A
O309        V314   1.853   1_565  S
O309        C318   1.256       .  A
O310        V314   1.855       .  S
O310        C317   1.256       .  A
O311        V314   1.858       .  S
O311        C316   1.257       .  A
O312        V314   1.855   1_565  S
O312        C315   1.257       .  A
V313        V314   2.036       .  T
O319        V327   1.853       .  S
O319        C329   1.257       .  A
O320        V327   1.851   1_565  S
O320        C330   1.255       .  A
O321        V327   1.849       .  S
O321        C331   1.255   1_545  A
O322        V327   1.847       .  S
O322        C332   1.254       .  A
O323        V328   1.955       .  S
O323        C332   1.277       .  A
O324        V328   1.949   1_565  S
O324        C331   1.276       .  A
O325        V328   1.940   1_565  S
O325        C330   1.274       .  A
O326        V328   1.950       .  S
O326        C329   1.275       .  A
V327        V328   2.047       .  T
O333        V341   1.963       .  S
O333        C343   1.278       .  A
O334        V341   1.957   1_565  S
O334        C344   1.278       .  A
O335        V341   1.962       .  S
O335        C345   1.278       .  A
O336        V341   1.970   1_565  S
O336        C346   1.280       .  A
O337        V342   1.848   1_565  S
O337        C346   1.256       .  A
O338        V342   1.852       .  S
O338        C345   1.256       .  A
O339        V342   1.844       .  S
O339        C344   1.254   1_545  A
O340        V342   1.844       .  S
O340        C343   1.254       .  A
V341        V342   2.039       .  T
O347        V355   1.965       .  S
O347        C357   1.280       .  A
O348        V355   1.964       .  S
O348        C358   1.279       .  A
O349        V355   1.957       .  S
O349        C359   1.277       .  A
O350        V355   1.961       .  S
O350        C360   1.278       .  A
O351        V356   1.853       .  S
O351        C360   1.256       .  A
O352        V356   1.852       .  S
O352        C359   1.256       .  A
O353        V356   1.859       .  S
O353        C358   1.257       .  A
O354        V356   1.855       .  S
O354        C357   1.256       .  A
V355        V356   2.040       .  T
C361        C362   1.572       .  S
C361        C367   1.560       .  S
C361        C365   1.577       .  S
C361        C940   1.539       .  S
C362        H369   1.081       .  S
C362        C363   1.361       .  D
C363        C364   1.524       .  S
C363        C463   1.487       .  S
C364        C368   1.524       .  S
C364        C366   1.524       .  S
C364        H370   1.103       .  S
C365        H371   1.085       .  S
C365        C366   1.373       .  D
C366        C433   1.505       .  S
C367        H372   1.086       .  S
C367        C368   1.356       .  D
C368        C478   1.482       .  S
C373        C374   1.568       .  S
C373        C379   1.570       .  S
C373        C377   1.572       .  S
C373        C926   1.544       .  S
C374        H381   1.079       .  S
C374        C375   1.352       .  D
C375        C376   1.520       .  S
C375        C449   1.478       .  S
C376        C380   1.522       .  S
C376        C378   1.525       .  S
C376        H382   1.104       .  S
C377        H383   1.085       .  S
C377        C378   1.370       .  D
C378        C461   1.495       .  S
C379        H384   1.085       .  S
C379        C380   1.367       .  D
C380        C476   1.495       .  S
C385        C386   1.558       .  S
C385        C391   1.568       .  S
C385        C389   1.573       .  S
C385        C915   1.530       .  S
C386        H393   1.086       .  S
C386        C387   1.353       .  D
C387        C388   1.522       .  S
C387        C419   1.481       .  S
C388        C392   1.526       .  S
C388        C390   1.525       .  S
C388        H394   1.104       .  S
C389        H395   1.085       .  S
C389        C390   1.371       .  D
C390        C448   1.496       .  S
C391        H396   1.081       .  S
C391        C392   1.359       .  D
C392        C477   1.480       .  S
C397        C398   1.574       .  S
C397        C403   1.577       .  S
C397        C401   1.566       .  S
C397        C898   1.553       .  S
C398        H405   1.085       .  S
C398        C399   1.371       .  D
C399        C400   1.527       .  S
C399        C436   1.499       .  S
C400        C404   1.521       .  S
C400        C402   1.526       .  S
C400        H406   1.103       .  S
C401        H407   1.086       .  S
C401        C402   1.363       .  D
C402        C422   1.496       .  S
C403        H408   1.077       .  S
C403        C404   1.363       .  D
C404        C475   1.495       .  S
O409        V417   1.947       .  S
O409        C419   1.276       .  A
O410        V417   1.964   1_455  S
O410        C420   1.278       .  A
O411        V417   1.962   1_455  S
O411        C421   1.278       .  A
O412        V417   1.961       .  S
O412        C422   1.280       .  A
O413        V418   1.857       .  S
O413        C422   1.256       .  A
O414        V418   1.864   1_455  S
O414        C421   1.259       .  A
O415        V418   1.851       .  S
O415        C420   1.256   1_655  A
O416        V418   1.856       .  S
O416        C419   1.256       .  A
V417        V418   2.038       .  T
C420        C508   1.499       .  S
C421        C496   1.500       .  S
O423        V431   1.865       .  S
O423        C433   1.260       .  A
O424        V431   1.862   1_455  S
O424        C434   1.259       .  A
O425        V431   1.853   1_455  S
O425        C435   1.255       .  A
O426        V431   1.855       .  S
O426        C436   1.256       .  A
O427        V432   1.964       .  S
O427        C436   1.279       .  A
O428        V432   1.960   1_455  S
O428        C435   1.278       .  A
O429        V432   1.962   1_455  S
O429        C434   1.278       .  A
O430        V432   1.963       .  S
O430        C433   1.278       .  A
V431        V432   2.044       .  T
C434        C510   1.501       .  S
C435        C484   1.495       .  S
O437        V445   1.864   1_455  S
O437        C447   1.260       .  A
O438        V445   1.861       .  S
O438        C448   1.259       .  A
O439        V445   1.850       .  S
O439        C449   1.254       .  A
O440        V445   1.848       .  S
O440        C450   1.253   1_655  A
O441        V446   1.949   1_455  S
O441        C450   1.277       .  A
O442        V446   1.945       .  S
O442        C449   1.277       .  A
O443        V446   1.958       .  S
O443        C448   1.277       .  A
O444        V446   1.957   1_455  S
O444        C447   1.277       .  A
V445        V446   2.040       .  T
C447        C520   1.497       .  S
C450        C493   1.479       .  S
O451        V459   1.956       .  S
O451        C461   1.277       .  A
O452        V459   1.955   1_455  S
O452        C462   1.277       .  A
O453        V459   1.954       .  S
O453        C463   1.278       .  A
O454        V459   1.951   1_455  S
O454        C464   1.277       .  A
O455        V460   1.851   1_455  S
O455        C464   1.255       .  A
O456        V460   1.851       .  S
O456        C463   1.255       .  A
O457        V460   1.859   1_455  S
O457        C462   1.258       .  A
O458        V460   1.861       .  S
O458        C461   1.259       .  A
V459        V460   2.038       .  T
C462        C486   1.492       .  S
C464        C517   1.483       .  S
O465        V473   1.863       .  S
O465        C475   1.259       .  A
O466        V473   1.860       .  S
O466        C476   1.258       .  A
O467        V473   1.847       .  S
O467        C477   1.254       .  A
O468        V473   1.849       .  S
O468        C478   1.254       .  A
O469        V474   1.950       .  S
O469        C478   1.276       .  A
O470        V474   1.948       .  S
O470        C477   1.276       .  A
O471        V474   1.957       .  S
O471        C476   1.277       .  A
O472        V474   1.954       .  S
O472        C475   1.277       .  A
V473        V474   2.044       .  T
C479        C480   1.572       .  S
C479        C485   1.565       .  S
C479        C483   1.573       .  S
C479        C887   1.542       .  S
C480        H487   1.080       .  S
C480        C481   1.364       .  D
C481        C482   1.521       .  S
C481        C538   1.487       .  S
C482        C486   1.522       .  S
C482        C484   1.525       .  S
C482        H488   1.102       .  S
C483        H489   1.085       .  S
C483        C484   1.364       .  D
C485        H490   1.086       .  S
C485        C486   1.362       .  D
C491        C492   1.567       .  S
C491        C497   1.563       .  S
C491        C495   1.576       .  S
C491        C873   1.538       .  S
C492        H499   1.079       .  S
C492        C493   1.355       .  D
C493        C494   1.522       .  S
C494        C498   1.520       .  S
C494        C496   1.525       .  S
C494        H500   1.103       .  S
C495        H501   1.085       .  S
C495        C496   1.371       .  D
C497        H502   1.086       .  S
C497        C498   1.361       .  D
C498        C537   1.485       .  S
C503        C504   1.569       .  S
C503        C509   1.571       .  S
C503        C507   1.575       .  S
C503        C859   1.544       .  S
C504        H511   1.079       .  S
C504        C505   1.350       .  D
C505        C506   1.518       .  S
C505        C539   1.479       .  S
C506        C510   1.522       .  S
C506        C508   1.527       .  S
C506        H512   1.101       .  S
C507        H513   1.085       .  S
C507        C508   1.372       .  D
C509        H514   1.085       .  S
C509        C510   1.368       .  D
C515        C516   1.564       .  S
C515        C521   1.573       .  S
C515        C519   1.573       .  S
C515        C845   1.540       .  S
C516        H523   1.086       .  S
C516        C517   1.358       .  D
C517        C518   1.523       .  S
C518        C522   1.518       .  S
C518        C520   1.522       .  S
C518        H524   1.104       .  S
C519        H525   1.085       .  S
C519        C520   1.369       .  D
C521        H526   1.074       .  S
C521        C522   1.356       .  D
C522        C540   1.479       .  S
O527        V535   1.857       .  S
O527        C537   1.258       .  A
O528        V535   1.857       .  S
O528        C538   1.258       .  A
O529        V535   1.849       .  S
O529        C539   1.254       .  A
O530        V535   1.850       .  S
O530        C540   1.255       .  A
O531        V536   1.944       .  S
O531        C540   1.275       .  A
O532        V536   1.944       .  S
O532        C539   1.275       .  A
O533        V536   1.948       .  S
O533        C538   1.275       .  A
O534        V536   1.947       .  S
O534        C537   1.275       .  A
V535        V536   2.048       .  T
C541        C831   1.570       .  S
C541        C842   1.558       .  S
C541       C1010   1.579       .  S
C541       C1125   1.575       .  S
C542        C814   1.572       .  S
C542        C929   1.572       .  S
C542       C1038   1.567       .  S
C542       C1153   1.574       .  S
C543        C800   1.570       .  S
C543        C870   1.570       .  S
C543        C985   1.562       .  S
C543       C1167   1.576       .  S
C544        C786   1.571       .  S
C544        C884   1.570       .  S
C544       C1024   1.563       .  S
C544       C1108   1.574       .  S
C545        C772   1.573       .  S
C545        C943   1.575       .  S
C545       C1055   1.573       .  S
C545       C1097   1.573       .  S
C546        C761   1.582       .  S
C546        C912   1.559       .  S
C546        C999   1.578       .  S
C546       C1139   1.573       .  S
C547        C744   1.572       .  S
C547        C856   1.572       .  S
C547        C971   1.573       .  S
C547       C1069   1.573       .  S
C548        C549   1.569       .  S
C548        C554   1.576       .  S
C548        C552   1.566       .  S
C548        C828   1.540       .  S
C549        H556   1.085       .  S
C549        C550   1.366       .  D
C550        C551   1.525       .  S
C550        C620   1.504       .  S
C551        C555   1.521       .  S
C551        C553   1.527       .  S
C551        H557   1.102       .  S
C552        H558   1.085       .  S
C552        C553   1.364       .  D
C553        C647   1.492       .  S
C554        H559   1.080       .  S
C554        C555   1.361       .  D
C555        C670   1.485       .  S
C560        C561   1.569       .  S
C560        C566   1.579       .  S
C560        C564   1.564       .  S
C560        C789   1.538       .  S
C561        H568   1.086       .  S
C561        C562   1.366       .  D
C562        C563   1.527       .  S
C562        C673   1.499       .  S
C563        C567   1.523       .  S
C563        C565   1.525       .  S
C563        H569   1.102       .  S
C564        H570   1.086       .  S
C564        C565   1.358       .  D
C565        C644   1.495       .  S
C566        H571   1.081       .  S
C566        C567   1.369       .  D
C567        C725   1.492       .  S
C572        C573   1.571       .  S
C572        C578   1.568       .  S
C572        C576   1.568       .  S
C572        C817   1.538       .  S
C573        H580   1.085       .  S
C573        C574   1.368       .  D
C574        C575   1.528       .  S
C574        C711   1.498       .  S
C575        C579   1.525       .  S
C575        C577   1.523       .  S
C575        H581   1.104       .  S
C576        H582   1.079       .  S
C576        C577   1.354       .  D
C577        C618   1.479       .  S
C578        H583   1.085       .  S
C578        C579   1.364       .  D
C579        C672   1.493       .  S
C584        C585   1.567       .  S
C584        C590   1.576       .  S
C584        C588   1.570       .  S
C584        C803   1.536       .  S
C585        H592   1.086       .  S
C585        C586   1.362       .  D
C586        C587   1.525       .  S
C586        C619   1.489       .  S
C587        C591   1.520       .  S
C587        C589   1.524       .  S
C587        H593   1.100       .  S
C588        H594   1.085       .  S
C588        C589   1.365       .  D
C589        C697   1.502       .  S
C590        H595   1.080       .  S
C590        C591   1.363       .  D
C591        C645   1.488       .  S
C596        C597   1.580       .  S
C596        C602   1.572       .  S
C596        C600   1.567       .  S
C596        C758   1.552       .  S
C597        H604   1.084       .  S
C597        C598   1.375       .  D
C598        C599   1.521       .  S
C598        C621   1.502       .  S
C599        C603   1.521       .  S
C599        C601   1.524       .  S
C599        H605   1.102       .  S
C600        H606   1.085       .  S
C600        C601   1.361       .  D
C601        C712   1.499       .  S
C602        H607   1.079       .  S
C602        C603   1.356       .  D
C603        C699   1.481       .  S
O608        V616   1.947       .  S
O608        C618   1.277       .  A
O609        V616   1.958   1_465  S
O609        C619   1.277       .  A
O610        V616   1.963   1_455  S
O610        C620   1.279       .  A
O611        V616   1.962   1_565  S
O611        C621   1.276       .  A
O612        V617   1.861   1_565  S
O612        C621   1.260       .  A
O613        V617   1.863   1_455  S
O613        C620   1.259       .  A
O614        V617   1.840   1_465  S
O614        C619   1.253       .  A
O615        V617   1.847       .  S
O615        C618   1.253       .  A
V616        V617   2.044       .  T
C622        C623   1.566       .  S
C622        C628   1.577       .  S
C622        C626   1.568       .  S
C622        C747   1.537       .  S
C623        H630   1.086       .  S
C623        C624   1.360       .  D
C624        C625   1.525       .  S
C624        C646   1.489       .  S
C625        C629   1.526       .  S
C625        C627   1.521       .  S
C625        H631   1.101       .  S
C626        H632   1.079       .  S
C626        C627   1.352       .  D
C627        C698   1.476       .  S
C628        H633   1.085       .  S
C628        C629   1.373       .  D
C629        C727   1.507       .  S
O634        V642   1.958   1_556  S
O634        C644   1.278       .  A
O635        V642   1.952   1_565  S
O635        C645   1.275       .  A
O636        V642   1.957   1_566  S
O636        C646   1.278       .  A
O637        V642   1.960       .  S
O637        C647   1.277       .  A
O638        V643   1.845       .  S
O638        C647   1.254       .  A
O639        V643   1.848   1_566  S
O639        C646   1.254       .  A
O640        V643   1.851       .  S
O640        C645   1.256   1_545  A
O641        V643   1.855   1_556  S
O641        C644   1.257       .  A
V642        V643   2.041       .  T
C648        C649   1.578       .  S
C648        C654   1.574       .  S
C648        C652   1.562       .  S
C648        C775   1.542       .  S
C649        H656   1.081       .  S
C649        C650   1.367       .  D
C650        C651   1.524       .  S
C650        C713   1.494       .  S
C651        C655   1.527       .  S
C651        C653   1.527       .  S
C651        H657   1.101       .  S
C652        H658   1.086       .  S
C652        C653   1.358       .  D
C653        C671   1.493       .  S
C654        H659   1.085       .  S
C654        C655   1.369       .  D
C655        C726   1.505       .  S
O660        V668   1.951   1_455  S
O660        C670   1.276       .  A
O661        V668   1.959   1_556  S
O661        C671   1.278       .  A
O662        V668   1.957       .  S
O662        C672   1.278       .  A
O663        V668   1.963   1_456  S
O663        C673   1.278       .  A
O664        V669   1.853   1_556  S
O664        C673   1.256   1_655  A
O665        V669   1.856       .  S
O665        C672   1.256       .  A
O666        V669   1.851   1_556  S
O666        C671   1.255       .  A
O667        V669   1.849   1_455  S
O667        C670   1.255       .  A
V668        V669   2.042       .  T
C674        C675   1.579       .  S
C674        C680   1.569       .  S
C674        C678   1.572       .  S
C674        C730   1.551       .  S
C675        H682   1.080       .  S
C675        C676   1.365       .  D
C676        C677   1.521       .  S
C676        C696   1.493       .  S
C677        C681   1.526       .  S
C677        C679   1.527       .  S
C677        H683   1.101       .  S
C678        H684   1.085       .  S
C678        C679   1.367       .  D
C679        C710   1.500       .  S
C680        H685   1.085       .  S
C680        C681   1.366       .  D
C681        C724   1.505       .  S
O686        V694   1.854       .  S
O686        C696   1.257   1_554  A
O687        V694   1.857   1_455  S
O687        C697   1.258       .  A
O688        V694   1.843   1_456  S
O688        C698   1.253       .  A
O689        V694   1.845       .  S
O689        C699   1.254       .  A
O690        V695   1.947       .  S
O690        C699   1.275       .  A
O691        V695   1.945   1_456  S
O691        C698   1.275       .  A
O692        V695   1.963   1_455  S
O692        C697   1.278       .  A
O693        V695   1.956   1_556  S
O693        C696   1.277       .  A
V694        V695   2.046       .  T
O700        V708   1.851   1_565  S
O700        C710   1.256   1_554  A
O701        V708   1.855       .  S
O701        C711   1.256       .  A
O702        V708   1.855   1_565  S
O702        C712   1.257       .  A
O703        V708   1.853   1_556  S
O703        C713   1.256       .  A
O704        V709   1.959   1_556  S
O704        C713   1.277       .  A
O705        V709   1.963   1_565  S
O705        C712   1.279       .  A
O706        V709   1.964       .  S
O706        C711   1.280       .  A
O707        V709   1.966   1_566  S
O707        C710   1.279       .  A
V708        V709   2.038       .  T
O714        V722   1.858   1_565  S
O714        C724   1.258       .  A
O715        V722   1.850       .  S
O715        C725   1.256   1_655  A
O716        V722   1.854       .  S
O716        C726   1.256       .  A
O717        V722   1.854   1_465  S
O717        C727   1.256       .  A
O718        V723   1.970   1_465  S
O718        C727   1.280       .  A
O719        V723   1.968       .  S
O719        C726   1.279       .  A
O720        V723   1.957   1_455  S
O720        C725   1.276       .  A
O721        V723   1.964   1_565  S
O721        C724   1.278       .  A
V722        V723   2.047       .  T
C728        C733   1.581       .  S
C728        C901   1.573       .  S
C728        C957   1.578       .  S
C728       C1083   1.571       .  S
C729        C730   1.411       .  A
C729        C734   1.410       .  A
C729        H736   1.075       .  S
C730        C731   1.414       .  A
C731        C732   1.409       .  A
C731        N738   1.433       .  S
C732        C733   1.418       .  A
C732        H737   1.078       .  S
C733        C734   1.422       .  A
C734        N735   1.431       .  S
N735        H739   1.046       .  S
N735        H740   1.045       .  S
N738        H741   1.045       .  S
N738        H742   1.046       .  S
C743        C744   1.418       .  A
C743        C748   1.403       .  A
C743        H750   1.078       .  S
C744        C745   1.419       .  A
C745        C746   1.400       .  A
C745        N752   1.432       .  S
C746        C747   1.410       .  A
C746        H751   1.073       .  S
C747        C748   1.410       .  A
C748        N749   1.433       .  S
N749        H753   1.046       .  S
N749        H754   1.045       .  S
N752        H755   1.046       .  S
N752        H756   1.046       .  S
C757        C758   1.414       .  A
C757        C762   1.405       .  A
C757        H764   1.073       .  S
C758        C759   1.422       .  A
C759        C760   1.403       .  A
C759        N766   1.435       .  S
C760        C761   1.418       .  A
C760        H765   1.076       .  S
C761        C762   1.420       .  A
C762        N763   1.433       .  S
N763        H767   1.045       .  S
N763        H768   1.046       .  S
N766        H769   1.043       .  S
N766        H770   1.041       .  S
C771        C772   1.413       .  A
C771        C776   1.403       .  A
C771        H778   1.077       .  S
C772        C773   1.423       .  A
C773        C774   1.408       .  A
C773        N780   1.433       .  S
C774        C775   1.409       .  A
C774        H779   1.077       .  S
C775        C776   1.413       .  A
C776        N777   1.433       .  S
N777        H781   1.045       .  S
N777        H782   1.046       .  S
N780        H783   1.046       .  S
N780        H784   1.045       .  S
C785        C786   1.412       .  A
C785        C790   1.401       .  A
C785        H792   1.077       .  S
C786        C787   1.425       .  A
C787        C788   1.408       .  A
C787        N794   1.433       .  S
C788        C789   1.407       .  A
C788        H793   1.077       .  S
C789        C790   1.413       .  A
C790        N791   1.433       .  S
N791        H795   1.046       .  S
N791        H796   1.046       .  S
N794        H797   1.046       .  S
N794        H798   1.045       .  S
C799        C800   1.415       .  A
C799        C804   1.401       .  A
C799        H806   1.078       .  S
C800        C801   1.423       .  A
C801        C802   1.405       .  A
C801        N808   1.434       .  S
C802        C803   1.408       .  A
C802        H807   1.076       .  S
C803        C804   1.412       .  A
C804        N805   1.433       .  S
N805        H809   1.046       .  S
N805        H810   1.046       .  S
N808        H811   1.046       .  S
N808        H812   1.046       .  S
C813        C814   1.417       .  A
C813        C818   1.402       .  A
C813        H820   1.078       .  S
C814        C815   1.421       .  A
C815        C816   1.403       .  A
C815        N822   1.433       .  S
C816        C817   1.411       .  A
C816        H821   1.074       .  S
C817        C818   1.410       .  A
C818        N819   1.433       .  S
N819        H823   1.046       .  S
N819        H824   1.045       .  S
N822        H825   1.046       .  S
N822        H826   1.045       .  S
C827        C828   1.407       .  A
C827        C832   1.403       .  A
C827        H834   1.075       .  S
C828        C829   1.412       .  A
C829        C830   1.406       .  A
C829        N836   1.433       .  S
C830        C831   1.416       .  A
C830        H835   1.078       .  S
C831        C832   1.423       .  A
C832        N833   1.431       .  S
N833        H837   1.045       .  S
N833        H838   1.046       .  S
N836        H839   1.046       .  S
N836        H840   1.045       .  S
C841        C842   1.410       .  A
C841        C846   1.398       .  A
C841        H848   1.084       .  S
C842        C843   1.423       .  A
C843        C844   1.404       .  A
C843        N850   1.431       .  S
C844        C845   1.409       .  A
C844        H849   1.084       .  S
C845        C846   1.419       .  A
C846        N847   1.426       .  S
N847        H851   1.046       .  S
N847        H852   1.046       .  S
N850        H853   1.046       .  S
N850        H854   1.045       .  S
C855        C856   1.421       .  A
C855        C860   1.406       .  A
C855        H862   1.077       .  S
C856        C857   1.429       .  A
C857        C858   1.397       .  A
C857        N864   1.435       .  S
C858        C859   1.411       .  A
C858        H863   1.072       .  S
C859        C860   1.408       .  A
C860        N861   1.433       .  S
N861        H865   1.046       .  S
N861        H866   1.046       .  S
N864        H867   1.041       .  S
N864        H868   1.043       .  S
C869        C870   1.412       .  A
C869        C874   1.402       .  A
C869        H876   1.083       .  S
C870        C871   1.429       .  A
C871        C872   1.403       .  A
C871        N878   1.431       .  S
C872        C873   1.403       .  A
C872        H877   1.084       .  S
C873        C874   1.421       .  A
C874        N875   1.435       .  S
N875        H879   1.046       .  S
N875        H880   1.046       .  S
N878        H881   1.046       .  S
N878        H882   1.046       .  S
C883        C884   1.413       .  A
C883        C888   1.406       .  A
C883        H890   1.082       .  S
C884        C885   1.426       .  A
C885        C886   1.403       .  A
C885        N892   1.432       .  S
C886        C887   1.406       .  A
C886        H891   1.083       .  S
C887        C888   1.417       .  A
C888        N889   1.430       .  S
N889        H893   1.046       .  S
N889        H894   1.046       .  S
N892        H895   1.046       .  S
N892        H896   1.046       .  S
C897        C898   1.410       .  A
C897        C902   1.412       .  A
C897        H904   1.084       .  S
C898        C899   1.420       .  A
C899        C900   1.407       .  A
C899        N906   1.429       .  S
C900        C901   1.413       .  A
C900        H905   1.081       .  S
C901        C902   1.425       .  A
C902        N903   1.431       .  S
N903        H907   1.046       .  S
N903        H908   1.045       .  S
N906        H909   1.046       .  S
N906        H910   1.046       .  S
C911        C912   1.412       .  A
C911        C916   1.398       .  A
C911        H918   1.076       .  S
C912        C913   1.423       .  A
C913        C914   1.403       .  A
C913        N920   1.433       .  S
C914        C915   1.408       .  A
C914        H919   1.075       .  S
C915        C916   1.411       .  A
C916        N917   1.434       .  S
N917        H921   1.046       .  S
N917        H922   1.046       .  S
N920        H923   1.052       .  S
N920        H924   1.039       .  S
C925        C926   1.412       .  A
C925        C930   1.402       .  A
C925        H932   1.073       .  S
C926        C927   1.411       .  A
C927        C928   1.407       .  A
C927        N934   1.433       .  S
C928        C929   1.421       .  A
C928        H933   1.079       .  S
C929        C930   1.417       .  A
C930        N931   1.433       .  S
N931        H935   1.045       .  S
N931        H936   1.046       .  S
N934        H937   1.046       .  S
N934        H938   1.045       .  S
C939        C940   1.410       .  A
C939        C944   1.407       .  A
C939        H946   1.076       .  S
C940        C941   1.411       .  A
C941        C942   1.403       .  A
C941        N948   1.434       .  S
C942        C943   1.417       .  A
C942        H947   1.079       .  S
C943        C944   1.421       .  A
C944        N945   1.433       .  S
N945        H949   1.045       .  S
N945        H950   1.046       .  S
N948        H951   1.045       .  S
N948        H952   1.046       .  S
C953        C954   1.406       .  A
C953        C958   1.406       .  A
C953        H960   1.084       .  S
C954        C955   1.425       .  A
C955        C956   1.410       .  A
C955        N962   1.434       .  S
C956        C957   1.411       .  A
C956        H961   1.083       .  S
C957        C958   1.427       .  A
C958        N959   1.432       .  S
N959        H963   1.046       .  S
N959        H964   1.045       .  S
N962        H965   1.045       .  S
N962        H966   1.046       .  S
C967        C968   1.410       .  A
C967        C972   1.400       .  A
C967        H974   1.073       .  S
C968        C969   1.409       .  A
C969        C970   1.404       .  A
C969        N976   1.433       .  S
C970        C971   1.419       .  A
C970        H975   1.077       .  S
C971        C972   1.422       .  A
C972        N973   1.434       .  S
N973        H977   1.046       .  S
N973        H978   1.046       .  S
N976        H979   1.045       .  S
N976        H980   1.046       .  S
C981        C982   1.409       .  A
C981        C986   1.402       .  A
C981        H988   1.075       .  S
C982        C983   1.425       .  A
C983        C984   1.396       .  A
C983        N990   1.436       .  S
C984        C985   1.410       .  A
C984        H989   1.078       .  S
C985        C986   1.422       .  A
C986        N987   1.434       .  S
N987        H991   1.046       .  S
N987        H992   1.045       .  S
N990        H993   1.042       .  S
N990        H994   1.042       .  S
C995        C996   1.413       .  A
C995       C1000   1.404       .  A
C995       H1002   1.074       .  S
C996        C997   1.425       .  A
C997        C998   1.403       .  A
C997       N1004   1.435       .  S
C998        C999   1.416       .  A
C998       H1003   1.076       .  S
C999       C1000   1.420       .  A
C1000      N1001   1.434       .  S
N1001      H1005   1.045       .  S
N1001      H1006   1.046       .  S
N1004      H1007   1.041       .  S
N1004      H1008   1.043       .  S
C1009      C1010   1.417       .  A
C1009      C1014   1.402       .  A
C1009      H1016   1.077       .  S
C1010      C1011   1.424       .  A
C1011      C1012   1.406       .  A
C1011      N1018   1.433       .  S
C1012      C1013   1.408       .  A
C1012      H1017   1.076       .  S
C1013      C1014   1.411       .  A
C1014      N1015   1.434       .  S
N1015      H1019   1.045       .  S
N1015      H1020   1.046       .  S
N1018      H1021   1.046       .  S
N1018      H1022   1.045       .  S
C1023      C1024   1.413       .  A
C1023      C1028   1.401       .  A
C1023      H1030   1.078       .  S
C1024      C1025   1.422       .  A
C1025      C1026   1.402       .  A
C1025      N1032   1.433       .  S
C1026      C1027   1.406       .  A
C1026      H1031   1.076       .  S
C1027      C1028   1.413       .  A
C1028      N1029   1.433       .  S
N1029      H1033   1.045       .  S
N1029      H1034   1.046       .  S
N1032      H1035   1.045       .  S
N1032      H1036   1.046       .  S
C1037      C1038   1.413       .  A
C1037      C1042   1.401       .  A
C1037      H1044   1.078       .  S
C1038      C1039   1.422       .  A
C1039      C1040   1.405       .  A
C1039      N1046   1.433       .  S
C1040      C1041   1.409       .  A
C1040      H1045   1.076       .  S
C1041      C1042   1.413       .  A
C1042      N1043   1.433       .  S
N1043      H1047   1.046       .  S
N1043      H1048   1.046       .  S
N1046      H1049   1.046       .  S
N1046      H1050   1.045       .  S
C1051      C1052   1.412       .  A
C1051      C1056   1.405       .  A
C1051      H1058   1.075       .  S
C1052      C1053   1.409       .  A
C1053      C1054   1.405       .  A
C1053      N1060   1.433       .  S
C1054      C1055   1.420       .  A
C1054      H1059   1.078       .  S
C1055      C1056   1.420       .  A
C1056      N1057   1.433       .  S
N1057      H1061   1.046       .  S
N1057      H1062   1.045       .  S
N1060      H1063   1.046       .  S
N1060      H1064   1.045       .  S
C1065      C1066   1.407       .  A
C1065      C1070   1.409       .  A
C1065      H1072   1.084       .  S
C1066      C1067   1.424       .  A
C1067      C1068   1.399       .  A
C1067      N1074   1.427       .  S
C1068      C1069   1.407       .  A
C1068      H1073   1.084       .  S
C1069      C1070   1.429       .  A
C1070      N1071   1.431       .  S
N1071      H1075   1.046       .  S
N1071      H1076   1.046       .  S
N1074      H1077   1.047       .  S
N1074      H1078   1.045       .  S
C1079      C1080   1.407       .  A
C1079      C1084   1.406       .  A
C1079      H1086   1.084       .  S
C1080      C1081   1.417       .  A
C1081      C1082   1.406       .  A
C1081      N1088   1.429       .  S
C1082      C1083   1.414       .  A
C1082      H1087   1.084       .  S
C1083      C1084   1.428       .  A
C1084      N1085   1.432       .  S
N1085      H1089   1.046       .  S
N1085      H1090   1.046       .  S
N1088      H1091   1.046       .  S
N1088      H1092   1.046       .  S
C1093      C1094   1.408       .  A
C1093      C1098   1.404       .  A
C1093      H1100   1.075       .  S
C1094      C1095   1.414       .  A
C1095      C1096   1.407       .  A
C1095      N1102   1.433       .  S
C1096      C1097   1.415       .  A
C1096      H1101   1.078       .  S
C1097      C1098   1.422       .  A
C1098      N1099   1.434       .  S
N1099      H1103   1.046       .  S
N1099      H1104   1.046       .  S
N1102      H1105   1.046       .  S
N1102      H1106   1.045       .  S
C1107      C1108   1.409       .  A
C1107      C1112   1.404       .  A
C1107      H1114   1.083       .  S
C1108      C1109   1.430       .  A
C1109      C1110   1.409       .  A
C1109      N1116   1.432       .  S
C1110      C1111   1.406       .  A
C1110      H1115   1.083       .  S
C1111      C1112   1.422       .  A
C1112      N1113   1.430       .  S
N1113      H1117   1.046       .  S
N1113      H1118   1.046       .  S
N1116      H1119   1.046       .  S
N1116      H1120   1.046       .  S
C1121      C1122   1.404       .  A
C1121      C1126   1.404       .  A
C1121      H1128   1.084       .  S
C1122      C1123   1.421       .  A
C1123      C1124   1.402       .  A
C1123      N1130   1.427       .  S
C1124      C1125   1.409       .  A
C1124      H1129   1.084       .  S
C1125      C1126   1.433       .  A
C1126      N1127   1.433       .  S
N1127      H1131   1.046       .  S
N1127      H1132   1.046       .  S
N1130      H1133   1.046       .  S
N1130      H1134   1.046       .  S
C1135      C1136   1.398       .  A
C1135      C1140   1.401       .  A
C1135      H1142   1.084       .  S
C1136      C1137   1.424       .  A
C1137      C1138   1.402       .  A
C1137      N1144   1.429       .  S
C1138      C1139   1.407       .  A
C1138      H1143   1.084       .  S
C1139      C1140   1.435       .  A
C1140      N1141   1.432       .  S
N1141      H1145   1.052       .  S
N1141      H1146   1.040       .  S
N1144      H1147   1.046       .  S
N1144      H1148   1.046       .  S
C1149      C1150   1.407       .  A
C1149      C1154   1.404       .  A
C1149      H1156   1.076       .  S
C1150      C1151   1.417       .  A
C1151      C1152   1.410       .  A
C1151      N1158   1.433       .  S
C1152      C1153   1.414       .  A
C1152      H1157   1.080       .  S
C1153      C1154   1.423       .  A
C1154      N1155   1.433       .  S
N1155      H1159   1.046       .  S
N1155      H1160   1.046       .  S
N1158      H1161   1.046       .  S
N1158      H1162   1.045       .  S
C1163      C1164   1.408       .  A
C1163      C1168   1.407       .  A
C1163      H1170   1.076       .  S
C1164      C1165   1.412       .  A
C1165      C1166   1.402       .  A
C1165      N1172   1.433       .  S
C1166      C1167   1.416       .  A
C1166      H1171   1.078       .  S
C1167      C1168   1.423       .  A
C1168      N1169   1.433       .  S
N1169      H1173   1.046       .  S
N1169      H1174   1.045       .  S
N1172      H1175   1.045       .  S
N1172      H1176   1.046       .  S
