geometry optimzed in LAMMPS
_audit_creation_date              2020-11-30 
_audit_creation_method            'lammps2cif' 
_symmetry_space_group_name_H-M    'P1' 
_symmetry_Int_Tables_number       1 
_symmetry_cell_setting            triclinic 
loop_ 
_symmetry_equiv_pos_as_xyz 
  x,y,z 
_cell_length_a                    53.7262855636513 
_cell_length_b                    53.83292478201229 
_cell_length_c                    53.665314991498555 
_cell_angle_alpha                 89.95594373978537 
_cell_angle_beta                  89.96024333299033 
_cell_angle_gamma                 90.01977381876432 
loop_ 
_atom_site_label 
_atom_site_type_symbol 
_atom_site_fract_x 
_atom_site_fract_y 
_atom_site_fract_z 
_atom_site_charge 
O1          O  0.75241722  0.59134859  0.70317753    -0.83070
O2          O  0.79792978  0.59851809  0.72481556    -0.80120
C3          C  0.81558674  0.60914772  0.73593128     1.00390
O4          O  0.81147347  0.62558362  0.75231336    -0.80150
O5          O  0.79702848  0.66599113  0.72412211    -0.82800
C6          C  0.78361891  0.67795594  0.70898754     1.04920
O7          O  0.76044438  0.67418351  0.70759519    -0.75560
O8          O  0.75347265  0.62815306  0.68570501    -0.75750
C9          C  0.75354005  0.60479204  0.68396449     1.04870
O10         O  0.72925185  0.59570892  0.75083023    -0.83070
O11         O  0.77549897  0.59712202  0.77310398    -0.80130
C12         C  0.76945367  0.61215650  0.79001119     1.00410
O13         O  0.76894368  0.63511607  0.78557736    -0.80160
O14         O  0.75862692  0.67746595  0.75920588    -0.82770
C15         C  0.73522201  0.67749649  0.75741182     1.04880
O16         O  0.72395793  0.66165285  0.74439862    -0.75590
O17         O  0.71379191  0.61805282  0.72029831    -0.75730
C18         C  0.71108254  0.60226353  0.73750994     1.04840
Cr19       Cr  0.76372631  0.59814975  0.73789683     1.93740
Cr20       Cr  0.78256871  0.64948288  0.75404801     1.93210
Cr21       Cr  0.73969014  0.64455624  0.71601979     1.39100
O22         O  0.76212456  0.63084699  0.73578713    -1.20820
O23         O  0.78864644  0.41580305  0.71857348    -0.83070
O24         O  0.74271015  0.41404836  0.69570802    -0.80120
C25         C  0.74849784  0.39895446  0.67875219     1.00390
O26         O  0.74960999  0.37605702  0.68329681    -0.80150
O27         O  0.76122117  0.33386072  0.70961952    -0.82800
C28         C  0.78467481  0.33422742  0.71200617     1.04920
O29         O  0.79521256  0.35027773  0.72535319    -0.75560
O30         O  0.80399770  0.39402095  0.74954989    -0.75750
C31         C  0.80675626  0.40956180  0.73212022     1.04870
O32         O  0.76480123  0.41990010  0.76598132    -0.83070
O33         O  0.71957257  0.41257899  0.74364779    -0.80130
C34         C  0.70210629  0.40192892  0.73223123     1.00410
O35         O  0.70662463  0.38498666  0.71636566    -0.80160
O36         O  0.72172267  0.34471375  0.74435023    -0.82770
C37         C  0.73512830  0.33289725  0.75952614     1.04880
O38         O  0.75820618  0.33703496  0.76126874    -0.75590
O39         O  0.76383067  0.38304868  0.78335826    -0.75730
C40         C  0.76354366  0.40638260  0.78514125     1.04840
Cr41       Cr  0.75404148  0.41307631  0.73108260     1.93740
Cr42       Cr  0.73621953  0.36144798  0.71471099     1.93210
Cr43       Cr  0.77850171  0.36704447  0.75333733     1.39100
O44         O  0.75610815  0.38040404  0.73320705    -1.20820
O45         O  0.76352766  0.47787140  0.82092109    -0.83070
O46         O  0.71836609  0.49865372  0.83143490    -0.80120
C47         C  0.70144879  0.51058399  0.84230689     1.00390
O48         O  0.70670566  0.52740204  0.85797429    -0.80150
O49         O  0.72467596  0.49955360  0.89722864    -0.82800
C50         C  0.73925345  0.48473051  0.90815389     1.04920
O51         O  0.76240117  0.48496717  0.90384372    -0.75560
O52         O  0.76655339  0.46197423  0.85841587    -0.75750
C53         C  0.76419267  0.45927458  0.83524605     1.04870
O54         O  0.78542666  0.52633886  0.82165154    -0.83070
O55         O  0.73944076  0.54743605  0.82690497    -0.80130
C56         C  0.74712467  0.56465379  0.84083271     1.00410
O57         O  0.74948865  0.56095748  0.86390341    -0.80160
O58         O  0.76314437  0.53541498  0.90622740    -0.82770
C59         C  0.78655501  0.53447824  0.90432090     1.04880
O60         O  0.79680061  0.52238215  0.88714711    -0.75590
O61         O  0.80405167  0.49732484  0.84354014    -0.75730
C62         C  0.80461025  0.51412967  0.82709134     1.04840
Cr63       Cr  0.75195333  0.51252328  0.82756955     1.93740
Cr64       Cr  0.73727327  0.52969141  0.87985446     1.93210
Cr65       Cr  0.78067634  0.49306973  0.87241350     1.39100
O66         O  0.75656410  0.51156052  0.86003495    -1.20820
O67         O  0.79203066  0.84917609  0.50607016    -0.83070
O68         O  0.74604676  0.85219862  0.52832591    -0.80120
C69         C  0.75382635  0.86678323  0.54480406     1.00390
O70         O  0.75619862  0.88954624  0.53978824    -0.80150
O71         O  0.76834957  0.93097012  0.51160838    -0.82800
C72         C  0.79153672  0.93044967  0.50719777     1.04920
O73         O  0.80105455  0.91372087  0.49391468    -0.75560
O74         O  0.80726494  0.86801792  0.47303933    -0.75750
C75         C  0.80982539  0.85359909  0.49151679     1.04870
O76         O  0.76864360  0.84272100  0.45901789    -0.83070
O77         O  0.72408152  0.85288055  0.48038298    -0.80130
C78         C  0.70705796  0.86366427  0.49216896     1.00410
O79         O  0.71191942  0.88112531  0.50747200    -0.80160
O80         O  0.72739104  0.92112054  0.47854946    -0.82770
C81         C  0.74044692  0.93147132  0.46191089     1.04880
O82         O  0.76307486  0.92584647  0.45890074    -0.75590
O83         O  0.76581929  0.87836861  0.43980482    -0.75730
C84         C  0.76507871  0.85499764  0.43942009     1.04840
Cr85       Cr  0.75792257  0.85170726  0.49326776     1.93740
Cr86       Cr  0.74220188  0.90416229  0.50820087     1.93210
Cr87       Cr  0.78264363  0.89567186  0.46796902     1.39100
O88         O  0.76081707  0.88415213  0.48969530    -1.20820
O89         O  0.76593979  0.28402986  0.89451311    -0.83070
O90         O  0.72029902  0.26333171  0.88637216    -0.80120
C91         C  0.70286225  0.25132018  0.87643039     1.00390
O92         O  0.70732652  0.23572145  0.85899711    -0.80150
O93         O  0.72242778  0.26352275  0.81823782    -0.82800
C94         C  0.73541922  0.27986891  0.80749557     1.04920
O95         O  0.75841339  0.28196546  0.81165900    -0.75560
O96         O  0.76230667  0.30217985  0.85834702    -0.75750
C97         C  0.76191161  0.30317282  0.88175190     1.04870
O98         O  0.78816399  0.23650460  0.88858872    -0.83070
O99         O  0.74152655  0.21543371  0.88742997    -0.80130
C100        C  0.74857820  0.19836550  0.87321370     1.00410
O101        O  0.75098711  0.20258186  0.85018803    -0.80160
O102        O  0.76301751  0.22984237  0.80716770    -0.82770
C103        C  0.78632270  0.23426576  0.80679653     1.04880
O104        O  0.79630572  0.24708546  0.82359320    -0.75590
O105        O  0.80358617  0.26870497  0.86858762    -0.75730
C106        C  0.80625922  0.25020462  0.88286669     1.04840
Cr107      Cr  0.75420898  0.24996270  0.88680033     1.93740
Cr108      Cr  0.73724620  0.23397637  0.83500093     1.93210
Cr109      Cr  0.77848633  0.27350246  0.84148538     1.39100
O110        O  0.75654506  0.25255176  0.85413871    -1.20820
O111        O  0.78585259  0.92151143  0.24165771    -0.83070
O112        O  0.76129017  0.91413927  0.19822460    -0.80120
C113        C  0.74964871  0.90317388  0.18117833     1.00390
O114        O  0.73430961  0.88583375  0.18599531    -0.80150
O115        O  0.76326979  0.84549367  0.19896803    -0.82800
C116        C  0.77990181  0.83422661  0.21113551     1.04920
O117        O  0.78331087  0.83858622  0.23394026    -0.75560
O118        O  0.80386560  0.88544669  0.23672291    -0.75750
C119        C  0.80482628  0.90882229  0.23647165     1.04870
O120        O  0.74029749  0.91535222  0.26841098    -0.83070
O121        O  0.71485756  0.91465298  0.22355866    -0.80130
C122        C  0.69826105  0.89934178  0.22964840     1.00410
O123        O  0.70322360  0.87645897  0.23050951    -0.80160
O124        O  0.73135015  0.83470229  0.24080117    -0.82770
C125        C  0.73637321  0.83458418  0.26386121     1.04880
O126        O  0.75040190  0.85065411  0.27346931    -0.75590
O127        O  0.77366516  0.89512213  0.28045382    -0.75730
C128        C  0.75574998  0.90960164  0.28510944     1.04840
Cr129      Cr  0.75065759  0.91389139  0.23306059     1.93740
Cr130      Cr  0.73432767  0.86213945  0.21542985     1.93210
Cr131      Cr  0.77614380  0.86841221  0.25454895     1.39100
O132        O  0.75367868  0.88126272  0.23424770    -1.20820
O133        O  0.72697131  0.01394268  0.15018770    -0.83070
O134        O  0.75017582  0.97004430  0.14247581    -0.80120
C135        C  0.76118727  0.95278585  0.13124964     1.00390
O136        O  0.77641383  0.95723915  0.11366232    -0.80150
O137        O  0.74744142  0.97154504  0.07364052    -0.82800
C138        C  0.73132428  0.98444653  0.06245637     1.04920
O139        O  0.72899914  0.00729989  0.06691546    -0.75560
O140        O  0.70868965  0.00997155  0.11400739    -0.75750
C141        C  0.70787574  0.00929165  0.13744908     1.04870
O142        O  0.77327424  0.03933280  0.14410003    -0.83070
O143        O  0.79735830  0.99393898  0.14270100    -0.80130
C144        C  0.81387607  0.99981879  0.12717661     1.00410
O145        O  0.80873790  0.00073499  0.10428361    -0.80160
O146        O  0.78082359  0.01232422  0.06291794    -0.82770
C147        C  0.77703649  0.03555460  0.06338408     1.04880
O148        O  0.76323446  0.04540191  0.07955938    -0.75590
O149        O  0.74011531  0.05252868  0.12425182    -0.75730
C150        C  0.75830272  0.05650200  0.13861863     1.04840
Cr151      Cr  0.76184580  0.00443671  0.14237409     1.93740
Cr152      Cr  0.77711447  0.98679391  0.09015220     1.93210
Cr153      Cr  0.73684375  0.02716206  0.09711393     1.39100
O154        O  0.75862464  0.00601841  0.10968310    -1.20820
O155        O  0.75065557  0.09557820  0.20852433    -0.83070
O156        O  0.79544216  0.10343188  0.23042777    -0.80120
C157        C  0.81290900  0.11438402  0.24144373     1.00390
O158        O  0.80860483  0.13158908  0.25710600    -0.80150
O159        O  0.79279821  0.17211247  0.22925885    -0.82800
C160        C  0.77929525  0.18331309  0.21356319     1.04920
O161        O  0.75633957  0.17868455  0.21200252    -0.75560
O162        O  0.75324683  0.13212843  0.19087414    -0.75750
C163        C  0.75411306  0.10879738  0.18948745     1.04870
O164        O  0.72676605  0.10003916  0.25581905    -0.83070
O165        O  0.77305755  0.10166878  0.27835667    -0.80130
C166        C  0.76715151  0.11646483  0.29546216     1.00410
O167        O  0.76577048  0.13945011  0.29098473    -0.80160
O168        O  0.75295588  0.18149180  0.26423089    -0.82770
C169        C  0.72959344  0.18093959  0.26100605     1.04880
O170        O  0.71948184  0.16474898  0.24749292    -0.75590
O171        O  0.71201074  0.12061625  0.22375344    -0.75730
C172        C  0.70894513  0.10559240  0.24160438     1.04840
Cr173      Cr  0.76131550  0.10270754  0.24322645     1.93740
Cr174      Cr  0.77868773  0.15466101  0.25918904     1.93210
Cr175      Cr  0.73700018  0.14810398  0.22008259     1.39100
O176        O  0.75912604  0.13535836  0.24082316    -1.20820
O177        O  0.72996535  0.27825981  0.07820274    -0.83070
O178        O  0.77722513  0.29813991  0.07944914    -0.80120
C179        C  0.77031791  0.31538907  0.09348264     1.00390
O180        O  0.76810723  0.31134410  0.11658073    -0.80150
O181        O  0.75490540  0.28489248  0.15956728    -0.82800
C182        C  0.73150662  0.28118713  0.15966924     1.04920
O183        O  0.72126053  0.26837613  0.14300433    -0.75560
O184        O  0.71371810  0.24642171  0.09806500    -0.75750
C185        C  0.71156779  0.26478871  0.08349488     1.04870
O186        O  0.75109060  0.23023444  0.07289321    -0.83070
O187        O  0.79713045  0.24974555  0.08088072    -0.80130
C188        C  0.81486744  0.26128615  0.09081732     1.00410
O189        O  0.81087793  0.27669914  0.10854001    -0.80160
O190        O  0.79432346  0.24967498  0.15020726    -0.82770
C191        C  0.78047099  0.23409861  0.16123966     1.04880
O192        O  0.75765648  0.23235369  0.15601031    -0.75590
O193        O  0.75421547  0.21211782  0.10913357    -0.75730
C194        C  0.75497777  0.21113432  0.08573049     1.04840
Cr195      Cr  0.76361384  0.26397463  0.08034261     1.93740
Cr196      Cr  0.78080918  0.27958341  0.13229420     1.93210
Cr197      Cr  0.73844618  0.24124797  0.12560250     1.39100
O198        O  0.76111929  0.26150024  0.11306305    -1.20820
O199        O  0.77313988  0.16857779  0.01400315    -0.83070
O200        O  0.79723019  0.16606864  0.96874325    -0.80120
C201        C  0.81430055  0.15109500  0.97454885     1.00390
O202        O  0.80977133  0.12813087  0.97616645    -0.80150
O203        O  0.78268140  0.08613917  0.98909807    -0.82800
C204        C  0.77965079  0.08715849  0.01248132     1.04920
O205        O  0.76704043  0.10416703  0.02231918    -0.75560
O206        O  0.74168282  0.14732605  0.02892176    -0.75750
C207        C  0.75931839  0.16239546  0.03194468     1.04870
O208        O  0.72615867  0.17164993  0.98863901    -0.83070
O209        O  0.75006601  0.16363959  0.94425617    -0.80130
C210        C  0.76193405  0.15249909  0.92738381     1.00410
O211        O  0.77732713  0.13540238  0.93270934    -0.80160
O212        O  0.74846882  0.09568072  0.94890781    -0.82770
C213        C  0.73319822  0.08437500  0.96279070     1.04880
O214        O  0.73209377  0.08876764  0.98579143    -0.75590
O215        O  0.70933170  0.13450511  0.98865326    -0.75730
C216        C  0.70721817  0.15777671  0.98765314     1.04840
Cr217      Cr  0.76153085  0.16501589  0.97910096     1.93740
Cr218      Cr  0.77829516  0.11287361  0.96305351     1.93210
Cr219      Cr  0.73914476  0.11963831  0.00456542     1.39100
O220        O  0.75953503  0.13243171  0.98202781    -1.20820
O221        O  0.76543685  0.97918951  0.32380813    -0.83070
O222        O  0.72094772  0.00145685  0.33209478    -0.80120
C223        C  0.70366143  0.01235302  0.34346640     1.00390
O224        O  0.70827340  0.02771718  0.36085202    -0.80150
O225        O  0.72496711  0.99951441  0.40085533    -0.82800
C226        C  0.73891158  0.98416364  0.41194318     1.04920
O227        O  0.76184980  0.98321584  0.40722333    -0.75560
O228        O  0.76378145  0.96176652  0.36065177    -0.75750
C229        C  0.76221511  0.96029690  0.33728124     1.04870
O230        O  0.78986158  0.02625548  0.32772626    -0.83070
O231        O  0.74383728  0.04913073  0.33021636    -0.80130
C232        C  0.74961223  0.06609103  0.34524402     1.00410
O233        O  0.75106498  0.06146432  0.36826310    -0.80160
O234        O  0.76479334  0.03459143  0.40991510    -0.82770
C235        C  0.78819761  0.03178377  0.40878296     1.04880
O236        O  0.79813328  0.01853470  0.39222627    -0.75590
O237        O  0.80476504  0.99422717  0.34808412    -0.75730
C238        C  0.80772013  0.01204021  0.33306926     1.04840
Cr239      Cr  0.75522587  0.01394938  0.33097718     1.93740
Cr240      Cr  0.73858612  0.02961985  0.38345245     1.93210
Cr241      Cr  0.78038003  0.99097506  0.37611632     1.39100
O242        O  0.75793034  0.01152596  0.36367389    -1.20820
O243        O  0.79061117  0.34373049  0.97741396    -0.83070
O244        O  0.76729344  0.35106865  0.02216236    -0.80120
C245        C  0.75560374  0.36185055  0.03937939     1.00390
O246        O  0.74006138  0.37901700  0.03449395    -0.80150
O247        O  0.76785475  0.42002696  0.01858348    -0.82800
C248        C  0.78313044  0.43163686  0.00486899     1.04920
O249        O  0.78511625  0.42670825  0.98201254    -0.75560
O250        O  0.80755124  0.38076904  0.97819216    -0.75750
C251        C  0.80958156  0.35746729  0.97878844     1.04870
O252        O  0.74358032  0.34717843  0.95264244    -0.83070
O253        O  0.71988214  0.34863423  0.99819669    -0.80130
C254        C  0.70266932  0.36331131  0.99215954     1.00410
O255        O  0.70695629  0.38637367  0.99096945    -0.80160
O256        O  0.73348610  0.42910554  0.97870611    -0.82770
C257        C  0.73707045  0.42904681  0.95537263     1.04880
O258        O  0.74999613  0.41246973  0.94514464    -0.75590
O259        O  0.77479372  0.36884622  0.93771144    -0.75730
C260        C  0.75744934  0.35336646  0.93474557     1.04840
Cr261      Cr  0.75544227  0.35025478  0.98744661     1.93740
Cr262      Cr  0.73836124  0.40204123  0.00433077     1.93210
Cr263      Cr  0.77772367  0.39617690  0.96264156     1.39100
O264        O  0.75732641  0.38297490  0.98501982    -1.20820
O265        O  0.78408964  0.66301068  0.51238298    -0.83070
O266        O  0.80575993  0.65883490  0.46625622    -0.80120
C267        C  0.82226880  0.64418188  0.47392356     1.00390
O268        O  0.81728845  0.62135892  0.47626178    -0.80150
O269        O  0.78861156  0.58018412  0.48914711    -0.82800
C270        C  0.78528233  0.58104273  0.51250583     1.04920
O271        O  0.77368018  0.59870002  0.52248550    -0.75560
O272        O  0.75176398  0.64399524  0.52867572    -0.75750
C273        C  0.77010393  0.65857279  0.53063422     1.04870
O274        O  0.73658146  0.66827917  0.48936101    -0.83070
O275        O  0.75749404  0.65785233  0.44463306    -0.80130
C276        C  0.76906431  0.64685962  0.42758032     1.00410
O277        O  0.78449064  0.62960445  0.43254647    -0.80160
O278        O  0.75468790  0.59074783  0.44922429    -0.82770
C279        C  0.73866215  0.58053910  0.46315931     1.04880
O280        O  0.73762942  0.58532083  0.48613069    -0.75590
O281        O  0.71792840  0.63219816  0.48835779    -0.75730
C282        C  0.71718843  0.65548028  0.48658799     1.04840
Cr283      Cr  0.77082129  0.65962402  0.47841868     1.93740
Cr284      Cr  0.78525967  0.60695489  0.46302196     1.93210
Cr285      Cr  0.74675242  0.61588181  0.50475216     1.39100
O286        O  0.76752923  0.62727199  0.48198295    -1.20820
O287        O  0.73027107  0.48505073  0.64548403    -0.83070
O288        O  0.77614670  0.46350858  0.64083820    -0.80120
C289        C  0.76824681  0.44631496  0.62703102     1.00390
O290        O  0.76546540  0.45005807  0.60402190    -0.80150
O291        O  0.75290116  0.47599549  0.56129350    -0.82800
C292        C  0.72952600  0.47828900  0.56237126     1.04920
O293        O  0.71940703  0.49061571  0.57944855    -0.75560
O294        O  0.71233972  0.51458632  0.62358419    -0.75750
C295        C  0.71134130  0.49754785  0.63979679     1.04870
O296        O  0.75257136  0.53313786  0.64727650    -0.83070
O297        O  0.79765463  0.51199585  0.63651770    -0.80130
C298        C  0.81443070  0.49987753  0.62560820     1.00410
O299        O  0.80897047  0.48279944  0.61027020    -0.80160
O300        O  0.79229134  0.51049455  0.57086274    -0.82770
C301        C  0.77857117  0.52610844  0.56002840     1.04880
O302        O  0.75542699  0.52723377  0.56429742    -0.75590
O303        O  0.75081033  0.54962221  0.61003206    -0.75730
C304        C  0.75253679  0.55197867  0.63329639     1.04840
Cr305      Cr  0.76391984  0.49849275  0.64017607     1.93740
Cr306      Cr  0.77856809  0.48097200  0.58809597     1.93210
Cr307      Cr  0.73623157  0.51905178  0.59517669     1.39100
O308        O  0.75959891  0.49969276  0.60767386    -1.20820
O309        O  0.73415038  0.75353074  0.57231473    -0.83070
O310        O  0.75665864  0.79814635  0.58191923    -0.80120
C311        C  0.76906250  0.81484942  0.59257955     1.00390
O312        O  0.78508080  0.80936715  0.60923867    -0.80150
O313        O  0.75753751  0.79287110  0.65025439    -0.82800
C314        C  0.74153382  0.77938895  0.66114041     1.04920
O315        O  0.73905331  0.75670394  0.65559817    -0.75560
O316        O  0.71710428  0.75352870  0.60935559    -0.75750
C317        C  0.71507991  0.75440868  0.58602053     1.04870
O318        O  0.78186354  0.73011560  0.57542599    -0.83070
O319        O  0.80452095  0.77545309  0.57838269    -0.80130
C320        C  0.82156863  0.76716446  0.59213499     1.00410
O321        O  0.81758194  0.76486858  0.61523771    -0.80160
O322        O  0.79135889  0.75225368  0.65827694    -0.82770
C323        C  0.78748798  0.72903608  0.65740167     1.04880
O324        O  0.77430585  0.71969243  0.64055232    -0.75590
O325        O  0.75078027  0.71368991  0.59633448    -0.75730
C326        C  0.76864916  0.71172530  0.58112761     1.04840
Cr327      Cr  0.76913772  0.76406667  0.57950113     1.93740
Cr328      Cr  0.78668762  0.77864234  0.63171543     1.93210
Cr329      Cr  0.74686941  0.73774655  0.62457118     1.39100
O330        O  0.76730364  0.76037797  0.61216532    -1.20820
O331        O  0.74727496  0.78371326  0.39503848    -0.83070
O332        O  0.72362305  0.73825219  0.39287434    -0.80120
C333        C  0.70638888  0.74486964  0.37845937     1.00390
O334        O  0.71030353  0.74647583  0.35537430    -0.80150
O335        O  0.73587178  0.75907797  0.31279178    -0.82800
C336        C  0.73902199  0.78235587  0.31385191     1.04920
O337        O  0.75281692  0.79205194  0.33006254    -0.75560
O338        O  0.77847794  0.79865504  0.37331499    -0.75750
C339        C  0.76123393  0.80155636  0.38902637     1.04870
O340        O  0.79428740  0.75890850  0.39736430    -0.83070
O341        O  0.77103226  0.71471772  0.38930691    -0.80130
C342        C  0.75899914  0.69781274  0.37855510     1.00410
O343        O  0.74293935  0.70288646  0.36193433    -0.80160
O344        O  0.77002983  0.71879811  0.32085793    -0.82770
C345        C  0.78501746  0.73251177  0.30903132     1.04880
O346        O  0.78730702  0.75524195  0.31420204    -0.75590
O347        O  0.81068429  0.75801076  0.35997665    -0.75730
C348        C  0.81301032  0.75705551  0.38331657     1.04840
Cr349      Cr  0.75907502  0.74907602  0.39115919     1.93740
Cr350      Cr  0.74111328  0.73308573  0.33928933     1.93210
Cr351      Cr  0.78079083  0.77419741  0.34532384     1.39100
O352        O  0.76045536  0.75193430  0.35843210    -1.20820
O353        O  0.54664003  0.77724332  0.64479222    -0.83070
O354        O  0.50056672  0.80031991  0.64355195    -0.80120
C355        C  0.50716881  0.81734963  0.62898988     1.00390
O356        O  0.50890870  0.81309981  0.60595724    -0.80150
O357        O  0.52044334  0.78651902  0.56348585    -0.82800
C358        C  0.54360988  0.78227369  0.56340246     1.04920
O359        O  0.55354620  0.76826995  0.57934348    -0.75560
O360        O  0.56069374  0.74505519  0.62390450    -0.75750
C361        C  0.56420644  0.76292827  0.63873879     1.04870
O362        O  0.52222576  0.73058232  0.64981977    -0.83070
O363        O  0.47757108  0.75301964  0.64156911    -0.80130
C364        C  0.46041552  0.76446362  0.63050563     1.00410
O365        O  0.46517742  0.78052878  0.61379271    -0.80160
O366        O  0.47981263  0.75305461  0.57301006    -0.82770
C367        C  0.49263643  0.73688200  0.56182283     1.04880
O368        O  0.51541806  0.73398697  0.56657815    -0.75590
O369        O  0.51860976  0.71291523  0.61338660    -0.75730
C370        C  0.51798668  0.71163196  0.63683041     1.04840
Cr371      Cr  0.51191464  0.76523954  0.64243425     1.93740
Cr372      Cr  0.49494771  0.78205869  0.59057709     1.93210
Cr373      Cr  0.53540322  0.74161452  0.59676819     1.39100
O374        O  0.51400792  0.76294892  0.60967737    -1.20820
O375        O  0.67300835  0.72579114  0.46848449    -0.83070
O376        O  0.67154014  0.77152299  0.44540017    -0.80120
C377        C  0.65686676  0.76513008  0.42828224     1.00390
O378        O  0.63378552  0.76401660  0.43240374    -0.80150
O379        O  0.59091673  0.75321481  0.45885158    -0.82800
C380        C  0.59081508  0.72986041  0.46170725     1.04920
O381        O  0.60706907  0.71923750  0.47478868    -0.75560
O382        O  0.65078641  0.71081347  0.49941463    -0.75750
C383        C  0.66650860  0.70790576  0.48218015     1.04870
O384        O  0.67670641  0.74972598  0.51578930    -0.83070
O385        O  0.66923941  0.79456010  0.49330947    -0.80130
C386        C  0.65885287  0.81184726  0.48147045     1.00410
O387        O  0.64249929  0.80721700  0.46503595    -0.80160
O388        O  0.60222777  0.79279018  0.49321596    -0.82770
C389        C  0.59068795  0.77967869  0.50891157     1.04880
O390        O  0.59388041  0.75650629  0.51013557    -0.75590
O391        O  0.63962814  0.75132247  0.53266098    -0.75730
C392        C  0.66298395  0.75186053  0.53471974     1.04840
Cr393      Cr  0.67017574  0.76028693  0.48078040     1.93740
Cr394      Cr  0.61878261  0.77791869  0.46358350     1.93210
Cr395      Cr  0.62382067  0.73616617  0.50270483     1.39100
O396        O  0.63746109  0.75818208  0.48243153    -1.20820
O397        O  0.49608193  0.66653928  0.70670357    -0.83070
O398        O  0.47161950  0.66604296  0.75213571    -0.80120
C399        C  0.45486622  0.65071755  0.74656351     1.00390
O400        O  0.45952938  0.62780134  0.74641441    -0.80150
O401        O  0.48617902  0.58588561  0.73482181    -0.82800
C402        C  0.48992171  0.58603723  0.71146481     1.04920
O403        O  0.50402184  0.60183936  0.70141121    -0.75560
O404        O  0.52868710  0.64574748  0.69376201    -0.75750
C405        C  0.51114193  0.66080586  0.68963123     1.04870
O406        O  0.54236378  0.67151934  0.73248753    -0.83070
O407        O  0.51862982  0.66530522  0.77648280    -0.80130
C408        C  0.50764426  0.65451448  0.79408901     1.00410
O409        O  0.49238675  0.63686239  0.78998339    -0.80160
O410        O  0.52003975  0.59572291  0.77549073    -0.82770
C411        C  0.53538603  0.58376213  0.76232425     1.04880
O412        O  0.53797382  0.58844487  0.73947074    -0.75590
O413        O  0.55974361  0.63492230  0.73635248    -0.75730
C414        C  0.56121300  0.65828823  0.73673944     1.04840
Cr415      Cr  0.50720878  0.66477299  0.74186997     1.93740
Cr416      Cr  0.49083227  0.61313360  0.76034274     1.93210
Cr417      Cr  0.53101179  0.61873842  0.71945499     1.39100
O418        O  0.50969931  0.63203741  0.74073443    -1.20820
O419        O  0.67030524  0.53230727  0.73285554    -0.83070
O420        O  0.65942372  0.51232248  0.77826093    -0.80120
C421        C  0.64905558  0.50019037  0.79536401     1.00390
O422        O  0.63223204  0.48421764  0.79053642    -0.80150
O423        O  0.59220533  0.51235958  0.77461917    -0.82800
C424        C  0.58226429  0.52911146  0.76144083     1.04920
O425        O  0.58727386  0.53131916  0.73853906    -0.75560
O426        O  0.63432738  0.55092351  0.73468090    -0.75750
C427        C  0.65771855  0.55176093  0.73555515     1.04870
O428        O  0.66503453  0.48469514  0.71103374    -0.83070
O429        O  0.66153363  0.46403713  0.75781813    -0.80130
C430        C  0.64781284  0.44714154  0.74950499     1.00410
O431        O  0.62484543  0.45128848  0.74667095    -0.80160
O432        O  0.58229603  0.47840246  0.73435382    -0.82770
C433        C  0.58257972  0.48237932  0.71106431     1.04880
O434        O  0.59931534  0.49543235  0.70119715    -0.75590
O435        O  0.64501466  0.51624938  0.69429461    -0.75730
C436        C  0.65985361  0.49803810  0.69249314     1.04840
Cr437      Cr  0.66164398  0.49848473  0.74475016     1.93740
Cr438      Cr  0.60933109  0.48265719  0.76026176     1.93210
Cr439      Cr  0.61731903  0.52197577  0.71886307     1.39100
O440        O  0.62911801  0.50114459  0.74131409    -1.20820
O441        O  0.60696954  0.72804046  0.75504147    -0.83070
O442        O  0.60876282  0.77359750  0.77845218    -0.80120
C443        C  0.62381239  0.76801292  0.79546725     1.00390
O444        O  0.64682428  0.76667832  0.79087628    -0.80150
O445        O  0.68843984  0.75346293  0.76364621    -0.82800
C446        C  0.68712624  0.73016286  0.76047516     1.04920
O447        O  0.67055427  0.72050739  0.74711083    -0.75560
O448        O  0.62694485  0.71399057  0.72237640    -0.75750
C449        C  0.61231691  0.71051329  0.74046569     1.04870
O450        O  0.60279887  0.75308219  0.70806170    -0.83070
O451        O  0.61040226  0.79706675  0.73118058    -0.80130
C452        C  0.62117187  0.81419562  0.74282579     1.00410
O453        O  0.63898480  0.80964156  0.75775018    -0.80160
O454        O  0.67947050  0.79374201  0.72908325    -0.82770
C455        C  0.69082518  0.78001964  0.71366680     1.04880
O456        O  0.68605851  0.75714992  0.71236473    -0.75590
O457        O  0.63960147  0.75570532  0.69071017    -0.75730
C458        C  0.61626071  0.75711408  0.68926619     1.04840
Cr459      Cr  0.60971155  0.76274975  0.74310237     1.93740
Cr460      Cr  0.66195762  0.77962611  0.75908998     1.93210
Cr461      Cr  0.65487795  0.73854601  0.71966582     1.39100
O462        O  0.64234993  0.76050899  0.74062299    -1.20820
O463        O  0.42099789  0.73629602  0.76333504    -0.83070
O464        O  0.41932056  0.71492609  0.71684329    -0.80120
C465        C  0.40461775  0.69815331  0.72383327     1.00390
O466        O  0.38159677  0.70258776  0.72494780    -0.80150
O467        O  0.33912065  0.72950788  0.73568813    -0.82800
C468        C  0.33873418  0.73229577  0.75912137     1.04920
O469        O  0.35495639  0.74519348  0.77005794    -0.75560
O470        O  0.40006427  0.76769363  0.77900242    -0.75750
C471        C  0.41563999  0.75017995  0.78138719     1.04870
O472        O  0.42633107  0.78389007  0.74098248    -0.83070
O473        O  0.41828751  0.76334708  0.69562711    -0.80130
C474        C  0.40831675  0.75182872  0.67794512     1.00410
O475        O  0.39133557  0.73582187  0.68189661    -0.80160
O476        O  0.35084572  0.76414127  0.69643568    -0.82770
C477        C  0.33958538  0.78003054  0.70959818     1.04880
O478        O  0.34333360  0.78147521  0.73281188    -0.75590
O479        O  0.38996404  0.80186209  0.73834160    -0.75730
C480        C  0.41336465  0.80307308  0.73784858     1.04840
Cr481      Cr  0.41877141  0.74970028  0.72931382     1.93740
Cr482      Cr  0.36715913  0.73413775  0.71109426     1.93210
Cr483      Cr  0.37299719  0.77255213  0.75344707     1.39100
O484        O  0.38608032  0.75220729  0.73124973    -1.20820
O485        O  0.51032245  0.78884269  0.82479616    -0.83070
O486        O  0.55543351  0.76750340  0.83450950    -0.80120
C487        C  0.57247694  0.75542286  0.84500694     1.00390
O488        O  0.56739199  0.73963829  0.86197516    -0.80150
O489        O  0.54975122  0.76755641  0.90217957    -0.82800
C490        C  0.53535486  0.78257650  0.91317071     1.04920
O491        O  0.51240341  0.78338954  0.90804962    -0.75560
O492        O  0.50876455  0.80563681  0.86194880    -0.75750
C493        C  0.51039019  0.80778769  0.83864089     1.04870
O494        O  0.48778543  0.74063500  0.82730877    -0.83070
O495        O  0.53368673  0.71916760  0.83154888    -0.80130
C496        C  0.52601503  0.70219520  0.84576762     1.00410
O497        O  0.52397480  0.70626204  0.86880414    -0.80160
O498        O  0.51037178  0.73216610  0.91099091    -0.82770
C499        C  0.48690731  0.73400570  0.90932018     1.04880
O500        O  0.47705507  0.74669547  0.89233695    -0.75590
O501        O  0.47017862  0.77087332  0.84826771    -0.75730
C502        C  0.46891093  0.75333457  0.83267232     1.04840
Cr503      Cr  0.52154972  0.75416890  0.83198374     1.93740
Cr504      Cr  0.53666737  0.73761498  0.88446313     1.93210
Cr505      Cr  0.49395687  0.77519340  0.87681092     1.39100
O506        O  0.51758470  0.75591300  0.86457461    -1.20820
O507        O  0.85023406  0.75755739  0.45426247    -0.83070
O508        O  0.85956158  0.71302507  0.47682311    -0.80120
C509        C  0.87016158  0.69621035  0.48912445     1.00390
O510        O  0.88695928  0.70160319  0.50501426    -0.80150
O511        O  0.92682984  0.71800192  0.47603152    -0.82800
C512        C  0.93752464  0.73175940  0.46015355     1.04920
O513        O  0.93315085  0.75474778  0.45910340    -0.75560
O514        O  0.88728491  0.75791109  0.43725064    -0.75750
C515        C  0.86402619  0.75651049  0.43523260     1.04870
O516        O  0.85347066  0.78118508  0.50207380    -0.83070
O517        O  0.85686067  0.73593010  0.52483557    -0.80130
C518        C  0.87105286  0.74389122  0.54171567     1.00410
O519        O  0.89413722  0.74586434  0.53740224    -0.80160
O520        O  0.93693775  0.75822088  0.50989711    -0.82770
C521        C  0.93626667  0.78153494  0.50632047     1.04880
O522        O  0.91852566  0.79126076  0.49466079    -0.75590
O523        O  0.87427468  0.79763404  0.47095142    -0.75730
C524        C  0.85926246  0.79962760  0.48894260     1.04840
Cr525      Cr  0.85744591  0.74717096  0.48933976     1.93740
Cr526      Cr  0.90974742  0.73214000  0.50602803     1.93210
Cr527      Cr  0.90238059  0.77360830  0.46703468     1.39100
O528        O  0.89001719  0.75080455  0.48728322    -1.20820
O529        O  0.91580762  0.74020165  0.25480802    -0.83070
O530        O  0.91135512  0.71897547  0.20880627    -0.80120
C531        C  0.89708928  0.70203735  0.21644416     1.00390
O532        O  0.87410677  0.70617571  0.21856478    -0.80150
O533        O  0.83211176  0.73216886  0.23232495    -0.82800
C534        C  0.83385915  0.73379103  0.25582461     1.04920
O535        O  0.85090935  0.74631760  0.26573407    -0.75560
O536        O  0.89496784  0.77037728  0.27265510    -0.75750
C537        C  0.91048710  0.75277811  0.27378892     1.04870
O538        O  0.91838008  0.78852640  0.23246314    -0.83070
O539        O  0.90853180  0.76740648  0.18721152    -0.80130
C540        C  0.89803577  0.75535239  0.17014142     1.00410
O541        O  0.88104636  0.73962079  0.17523008    -0.80160
O542        O  0.84109378  0.76769084  0.19305594    -0.82770
C543        C  0.83016433  0.78263280  0.20757195     1.04880
O544        O  0.83523816  0.78324655  0.23056303    -0.75590
O545        O  0.88130005  0.80539045  0.23427020    -0.75730
C546        C  0.90457816  0.80749975  0.23255930     1.04840
Cr547      Cr  0.91109520  0.75392080  0.22108817     1.93740
Cr548      Cr  0.85861031  0.73761425  0.20600095     1.93210
Cr549      Cr  0.86643306  0.77489292  0.24894582     1.39100
O550        O  0.87856650  0.75573614  0.22515506    -1.20820
O551        O  0.24129887  0.78165814  0.88962666    -0.83070
O552        O  0.21846815  0.73644226  0.88640994    -0.80120
C553        C  0.20159403  0.74421580  0.87209765     1.00390
O554        O  0.20593726  0.74614670  0.84900096    -0.80150
O555        O  0.23334250  0.75860400  0.80625423    -0.82800
C556        C  0.23682191  0.78192661  0.80705486     1.04920
O557        O  0.24857303  0.79158561  0.82476558    -0.75560
O558        O  0.27248280  0.79793407  0.86884199    -0.75750
C559        C  0.25439407  0.80007404  0.88369358     1.04870
O560        O  0.28905960  0.75787522  0.89287580    -0.83070
O561        O  0.26636494  0.71337466  0.88376021    -0.80130
C562        C  0.25412383  0.69656059  0.87309776     1.00410
O563        O  0.23829686  0.70194808  0.85623727    -0.80160
O564        O  0.26720564  0.71832003  0.81632338    -0.82770
C565        C  0.28298741  0.73208783  0.80553844     1.04880
O566        O  0.28399708  0.75507909  0.80987620    -0.75590
O567        O  0.30598284  0.75813083  0.85573762    -0.75730
C568        C  0.30804358  0.75679088  0.87902213     1.04840
Cr569      Cr  0.25395910  0.74757947  0.88576721     1.93740
Cr570      Cr  0.23726947  0.73246995  0.83342179     1.93210
Cr571      Cr  0.27622774  0.77389592  0.84073106     1.39100
O572        O  0.25600408  0.75112621  0.85315715    -1.20820
O573        O  0.22715454  0.74956348  0.06617643    -0.83070
O574        O  0.24963274  0.79443133  0.07332715    -0.80120
C575        C  0.26141310  0.81180382  0.08361736     1.00390
O576        O  0.27766244  0.80730711  0.10019906    -0.80150
O577        O  0.24935884  0.79293237  0.14050761    -0.82800
C578        C  0.23380974  0.77976263  0.15216437     1.04920
O579        O  0.23277705  0.75656913  0.14910154    -0.75560
O580        O  0.21027447  0.75116083  0.10329954    -0.75750
C581        C  0.20822450  0.75163566  0.07990901     1.04870
O582        O  0.27443917  0.72559563  0.07004176    -0.83070
O583        O  0.29748395  0.77133628  0.07137690    -0.80130
C584        C  0.31456150  0.76526843  0.08624090     1.00410
O585        O  0.31035359  0.76431096  0.10933298    -0.80160
O586        O  0.28384747  0.75353666  0.15216183    -0.82770
C587        C  0.28117848  0.73015703  0.15231301     1.04880
O588        O  0.26822863  0.71941496  0.13602928    -0.75590
O589        O  0.24354886  0.71071307  0.09232835    -0.75730
C590        C  0.26073739  0.70774080  0.07658302     1.04840
Cr591      Cr  0.26213967  0.76012896  0.07269369     1.93740
Cr592      Cr  0.27909288  0.77811851  0.12412257     1.93210
Cr593      Cr  0.24025250  0.73616736  0.11920140     1.39100
O594        O  0.26042195  0.75820440  0.10545666    -1.20820
O595        O  0.16738688  0.72989357  0.96092104    -0.83070
O596        O  0.16451872  0.77537333  0.93840954    -0.80120
C597        C  0.15085375  0.76711771  0.92128554     1.00390
O598        O  0.12777139  0.76478713  0.92518632    -0.80150
O599        O  0.08462973  0.75226349  0.95122356    -0.82800
C600        C  0.08530734  0.72903436  0.95510099     1.04920
O601        O  0.10198324  0.71957635  0.96844792    -0.75560
O602        O  0.14629080  0.71335529  0.99186157    -0.75750
C603        C  0.16158834  0.71145315  0.97405186     1.04870
O604        O  0.17050614  0.75309496  0.00871036    -0.83070
O605        O  0.16093284  0.79787796  0.98636346    -0.80130
C606        C  0.15037203  0.81462929  0.97391148     1.00410
O607        O  0.13377767  0.80919760  0.95781366    -0.80160
O608        O  0.09271450  0.79277551  0.98519522    -0.82770
C609        C  0.08183600  0.77934244  0.00124502     1.04880
O610        O  0.08733380  0.75665362  0.00380796    -0.75590
O611        O  0.13352035  0.75312382  0.02577390    -0.75730
C612        C  0.15683539  0.75395224  0.02780399     1.04840
Cr613      Cr  0.16333021  0.76381511  0.97375670     1.93740
Cr614      Cr  0.11125504  0.77853646  0.95607237     1.93210
Cr615      Cr  0.11818749  0.73752365  0.99591100     1.39100
O616        O  0.13068132  0.76016276  0.97550384    -1.20820
O617        O  0.03480408  0.75231843  0.13986241    -0.83070
O618        O  0.01184902  0.79643192  0.13219427    -0.80120
C619        C  0.00017265  0.81358646  0.12147976     1.00390
O620        O  0.98521666  0.80906178  0.10367882    -0.80150
O621        O  0.01383905  0.79341629  0.06311961    -0.82800
C622        C  0.02939203  0.77983418  0.05180657     1.04920
O623        O  0.03088278  0.75696507  0.05652902    -0.75560
O624        O  0.05227495  0.75520149  0.10313070    -0.75750
C625        C  0.05362930  0.75647448  0.12651273     1.04870
O626        O  0.98788472  0.72746406  0.13538484    -0.83070
O627        O  0.96459643  0.77309432  0.13373150    -0.80130
C628        C  0.94758779  0.76752035  0.11868630     1.00410
O629        O  0.95218378  0.76609502  0.09565462    -0.80160
O630        O  0.97944589  0.75311639  0.05386239    -0.82770
C631        C  0.98281001  0.72982269  0.05489168     1.04880
O632        O  0.99620268  0.72008091  0.07142097    -0.75590
O633        O  0.02051137  0.71340015  0.11534465    -0.75730
C634        C  0.00241403  0.70992846  0.12996263     1.04840
Cr635      Cr  0.99987137  0.76213428  0.13279963     1.93740
Cr636      Cr  0.98391941  0.77914262  0.08054956     1.93210
Cr637      Cr  0.02343537  0.73811036  0.08753490     1.39100
O638        O  0.00239491  0.75997036  0.10011201    -1.20820
O639        O  0.09314721  0.73024366  0.22073479    -0.83070
O640        O  0.10145092  0.75257211  0.26545565    -0.80120
C641        C  0.11253741  0.76393008  0.28265534     1.00390
O642        O  0.12926976  0.77996342  0.27792706    -0.80150
O643        O  0.17004728  0.75250300  0.26316744    -0.82800
C644        C  0.18116068  0.73629797  0.25029836     1.04920
O645        O  0.17632800  0.73342945  0.22750685    -0.75560
O646        O  0.12949579  0.71246961  0.22433579    -0.75750
C647        C  0.10607052  0.71125113  0.22494927     1.04870
O648        O  0.09818953  0.77688656  0.19632191    -0.83070
O649        O  0.09948611  0.79990387  0.24251222    -0.80130
C650        C  0.11401351  0.81691793  0.23584893     1.00410
O651        O  0.13702828  0.81265923  0.23416135    -0.80160
O652        O  0.17941897  0.78609681  0.22253688    -0.82770
C653        C  0.17946596  0.78189756  0.19934016     1.04880
O654        O  0.16360254  0.76782475  0.18940127    -0.75590
O655        O  0.11903230  0.74468924  0.18223315    -0.75730
C656        C  0.10416018  0.76253313  0.17873880     1.04840
Cr657      Cr  0.10058128  0.76485136  0.23109423     1.93740
Cr658      Cr  0.15241978  0.78156238  0.24808959     1.93210
Cr659      Cr  0.14615620  0.74116874  0.20754394     1.39100
O660        O  0.13330655  0.76250464  0.22899147    -1.20820
O661        O  0.00211146  0.78315029  0.31630295    -0.83070
O662        O  0.04739712  0.76260551  0.32455428    -0.80120
C663        C  0.06502288  0.75105168  0.33457300     1.00390
O664        O  0.06099467  0.73496237  0.35148178    -0.80150
O665        O  0.04642181  0.76337574  0.39179985    -0.82800
C666        C  0.03325334  0.77928546  0.40299149     1.04920
O667        O  0.01005414  0.78065757  0.39934857    -0.75560
O668        O  0.00459736  0.80109510  0.35272428    -0.75750
C669        C  0.00518689  0.80232563  0.32930081     1.04870
O670        O  0.97978585  0.73555498  0.32160088    -0.83070
O671        O  0.02620781  0.71417847  0.32351818    -0.80130
C672        C  0.01903661  0.69745031  0.33820397     1.00410
O673        O  0.01788333  0.70186146  0.36124720    -0.80160
O674        O  0.00719647  0.72886127  0.40373992    -0.82770
C675        C  0.98378607  0.73165694  0.40411413     1.04880
O676        O  0.97287099  0.74442865  0.38775731    -0.75590
O677        O  0.96404377  0.76691054  0.34256077    -0.75730
C678        C  0.96171775  0.74938902  0.32698567     1.04840
Cr679      Cr  0.01375185  0.74895442  0.32393484     1.93740
Cr680      Cr  0.03178037  0.73336845  0.37563883     1.93210
Cr681      Cr  0.98948804  0.77177585  0.36968209     1.39100
O682        O  0.01169480  0.75144158  0.35664335    -1.20820
O683        O  0.34573461  0.75970944  0.94867669    -0.83070
O684        O  0.35329585  0.71554619  0.97217371    -0.80120
C685        C  0.36391250  0.69855625  0.98422552     1.00390
O686        O  0.38062618  0.70352461  0.00021504    -0.80150
O687        O  0.42172256  0.71925788  0.97303284    -0.82800
C688        C  0.43372995  0.73295651  0.95817340     1.04920
O689        O  0.42877846  0.75575167  0.95602487    -0.75560
O690        O  0.38316734  0.75875245  0.93243234    -0.75750
C691        C  0.35986225  0.75776888  0.93001553     1.04870
O692        O  0.34786714  0.78477729  0.99558941    -0.83070
O693        O  0.34987581  0.73936040  0.01952218    -0.80130
C694        C  0.36440719  0.74560059  0.03680647     1.00410
O695        O  0.38748027  0.74696816  0.03289771    -0.80160
O696        O  0.43007345  0.75942475  0.00732688    -0.82770
C697        C  0.42916701  0.78273225  0.00427298     1.04880
O698        O  0.41299210  0.79259282  0.99052997    -0.75590
O699        O  0.36986939  0.79952738  0.96448793    -0.75730
C700        C  0.35391242  0.80253144  0.98149590     1.04840
Cr701      Cr  0.35170609  0.75001081  0.98398959     1.93740
Cr702      Cr  0.40342932  0.73359904  0.00202440     1.93210
Cr703      Cr  0.39774092  0.77487247  0.96241538     1.39100
O704        O  0.38442970  0.75265658  0.98270548    -1.20820
O705        O  0.02867285  0.29087200  0.81898736    -0.83070
O706        O  0.05145759  0.24532096  0.82140761    -0.80120
C707        C  0.06817186  0.25148134  0.83660286     1.00390
O708        O  0.06333284  0.25271808  0.85958416    -0.80150
O709        O  0.03560231  0.26396969  0.90169755    -0.82800
C710        C  0.03271921  0.28730192  0.90152543     1.04920
O711        O  0.02065729  0.29788644  0.88448995    -0.75560
O712        O  0.99714439  0.30619188  0.83990845    -0.75750
C713        C  0.01456175  0.30874147  0.82426573     1.04870
O714        O  0.98142424  0.26705538  0.81431155    -0.83070
O715        O  0.00371616  0.22234036  0.82228693    -0.80130
C716        C  0.01615565  0.20521125  0.83213206     1.00410
O717        O  0.03099580  0.20967541  0.85003733    -0.80160
O718        O  0.00144377  0.22462290  0.89068530    -0.82770
C719        C  0.98606534  0.23818508  0.90233508     1.04880
O720        O  0.98448032  0.26116912  0.89773101    -0.75590
O721        O  0.96354799  0.26597139  0.85102054    -0.75730
C722        C  0.96215910  0.26538094  0.82761181     1.04840
Cr723      Cr  0.01615130  0.25653320  0.82179957     1.93740
Cr724      Cr  0.03160744  0.23906066  0.87395885     1.93210
Cr725      Cr  0.99304347  0.28106982  0.86736557     1.39100
O726        O  0.01343585  0.25871927  0.85452169    -1.20820
O727        O  0.85099535  0.23868867  0.95284287    -0.83070
O728        O  0.85252760  0.21693589  0.99879348    -0.80120
C729        C  0.86647580  0.19959706  0.99159931     1.00390
O730        O  0.88954969  0.20346370  0.98914767    -0.80150
O731        O  0.93317566  0.22985266  0.97703190    -0.82800
C732        C  0.93321065  0.23382976  0.95363413     1.04920
O733        O  0.91622541  0.24640479  0.94374667    -0.75560
O734        O  0.87215547  0.26964447  0.93654395    -0.75750
C735        C  0.85726164  0.25159820  0.93437722     1.04870
O736        O  0.84710288  0.28668072  0.97542287    -0.83070
O737        O  0.85530460  0.26494710  0.02086754    -0.80130
C738        C  0.86505858  0.25236452  0.03802970     1.00410
O739        O  0.88186974  0.23629279  0.03307363    -0.80160
O740        O  0.92277972  0.26367559  0.01760862    -0.82770
C741        C  0.93387621  0.27965446  0.00443817     1.04880
O742        O  0.92987121  0.28149672  0.98132483    -0.75590
O743        O  0.88411149  0.30349328  0.97679997    -0.75730
C744        C  0.86081723  0.30559733  0.97731125     1.04840
Cr745      Cr  0.85391702  0.25195327  0.98675040     1.93740
Cr746      Cr  0.90547525  0.23443685  0.00290543     1.93210
Cr747      Cr  0.89963839  0.27376365  0.96136360     1.39100
O748        O  0.88656467  0.25355157  0.98382346    -1.20820
O749        O  0.99164900  0.59564403  0.01172223    -0.83070
O750        O  0.96939041  0.59679687  0.96544996    -0.80120
C751        C  0.95239147  0.61176170  0.97136733     1.00390
O752        O  0.95674409  0.63476506  0.97182491    -0.80150
O753        O  0.98296771  0.67728845  0.98264294    -0.82800
C754        C  0.98494588  0.67730772  0.00609435     1.04920
O755        O  0.99783440  0.66129525  0.01725160    -0.75560
O756        O  0.02221157  0.61787005  0.02714431    -0.75750
C757        C  0.00493275  0.60222046  0.02990752     1.04870
O758        O  0.03933322  0.59147390  0.98845871    -0.83070
O759        O  0.01755126  0.59828533  0.94289165    -0.80130
C760        C  0.00637270  0.60879248  0.92517625     1.00410
O761        O  0.99030268  0.62557663  0.92926661    -0.80160
O762        O  0.01828466  0.66624725  0.94414524    -0.82770
C763        C  0.03330613  0.67818585  0.95773966     1.04880
O764        O  0.03446922  0.67432383  0.98091688    -0.75590
O765        O  0.05655231  0.62839172  0.98740974    -0.75730
C766        C  0.05843332  0.60505212  0.98730485     1.04840
Cr767      Cr  0.00457242  0.59805484  0.97719757     1.93740
Cr768      Cr  0.98831962  0.64942340  0.95839219     1.93210
Cr769      Cr  0.02623574  0.64448732  0.00136808     1.39100
O770        O  0.00657441  0.63077216  0.97881449    -1.20820
O771        O  0.91897020  0.52497736  0.95551586    -0.83070
O772        O  0.91492625  0.54685393  0.00135275    -0.80120
C773        C  0.90117191  0.56421097  0.99370736     1.00390
O774        O  0.87803165  0.56077247  0.99168222    -0.80150
O775        O  0.83516116  0.53567927  0.97873102    -0.82800
C776        C  0.83680461  0.53414879  0.95529511     1.04920
O777        O  0.85352022  0.52138887  0.94514263    -0.75560
O778        O  0.89668312  0.49573723  0.93779873    -0.75750
C779        C  0.91326743  0.51238995  0.93664001     1.04870
O780        O  0.91945004  0.47691086  0.97826777    -0.83070
O781        O  0.91005859  0.49853392  0.02328633    -0.80130
C782        C  0.89955790  0.51079867  0.04020717     1.00410
O783        O  0.88382506  0.52757400  0.03495278    -0.80160
O784        O  0.84362606  0.50020482  0.01788644    -0.82770
C785        C  0.83228814  0.48523913  0.00372679     1.04880
O786        O  0.83663173  0.48481419  0.98053877    -0.75590
O787        O  0.88178969  0.46135969  0.97639284    -0.75730
C788        C  0.90493796  0.45847686  0.97833376     1.04840
Cr789      Cr  0.91346083  0.51178790  0.98937285     1.93740
Cr790      Cr  0.86161870  0.52985714  0.00454438     1.93210
Cr791      Cr  0.86802091  0.49226826  0.96173137     1.39100
O792        O  0.88092045  0.51110732  0.98532371    -1.20820
O793        O  0.00522552  0.47799616  0.89275805    -0.83070
O794        O  0.05096089  0.49750153  0.88320908    -0.80120
C795        C  0.06841670  0.50952806  0.87336319     1.00390
O796        O  0.06414112  0.52551781  0.85637663    -0.80150
O797        O  0.04784063  0.49830143  0.81545638    -0.82800
C798        C  0.03402115  0.48290345  0.80430588     1.04920
O799        O  0.01114394  0.48096219  0.80954852    -0.75560
O800        O  0.00655368  0.46005094  0.85629235    -0.75750
C801        C  0.00728668  0.45876377  0.87970611     1.04870
O802        O  0.98398344  0.52594800  0.88858572    -0.83070
O803        O  0.03103772  0.54607969  0.88560098    -0.80130
C804        C  0.02365702  0.56324248  0.87163718     1.00410
O805        O  0.02125640  0.55933942  0.84860865    -0.80160
O806        O  0.00872043  0.53323566  0.80591479    -0.82770
C807        C  0.98532722  0.53028863  0.80626760     1.04880
O808        O  0.97492467  0.51747444  0.82287723    -0.75590
O809        O  0.96695942  0.49504844  0.86792872    -0.75730
C810        C  0.96539248  0.51264301  0.88355317     1.04840
Cr811      Cr  0.01759901  0.51179299  0.88507798     1.93740
Cr812      Cr  0.03419170  0.52795033  0.83307020     1.93210
Cr813      Cr  0.99161254  0.48981361  0.84001433     1.39100
O814        O  0.01454320  0.50970641  0.85244506    -1.20820
O815        O  0.25367448  0.59597869  0.20620462    -0.83070
O816        O  0.29859204  0.60566302  0.22729640    -0.80120
C817        C  0.31583329  0.61662004  0.23863975     1.00390
O818        O  0.31106944  0.63428640  0.25374378    -0.80150
O819        O  0.29471736  0.67324606  0.22389734    -0.82800
C820        C  0.28093451  0.68357056  0.20787414     1.04920
O821        O  0.25794163  0.67900754  0.20682529    -0.75560
O822        O  0.25495062  0.63196893  0.18727788    -0.75750
C823        C  0.25623658  0.60863786  0.18663755     1.04870
O824        O  0.23057864  0.60196340  0.25373602    -0.83070
O825        O  0.27666999  0.60565583  0.27548240    -0.80130
C826        C  0.26927407  0.62064015  0.29182877     1.00410
O827        O  0.26737978  0.64341894  0.28663241    -0.80160
O828        O  0.25472500  0.68451460  0.25802813    -0.82770
C829        C  0.23130459  0.68373476  0.25492807     1.04880
O830        O  0.22131826  0.66629779  0.24298376    -0.75590
O831        O  0.21462620  0.62100995  0.22127037    -0.75730
C832        C  0.21238469  0.60671314  0.23980948     1.04840
Cr833      Cr  0.26464023  0.60472167  0.24048506     1.93740
Cr834      Cr  0.28073666  0.65737262  0.25452809     1.93210
Cr835      Cr  0.23892163  0.64872963  0.21610762     1.39100
O836        O  0.26156177  0.63713732  0.23691654    -1.20820
O837        O  0.22587450  0.51400076  0.14702988    -0.83070
O838        O  0.24863353  0.46908312  0.13994947    -0.80120
C839        C  0.26088625  0.45180719  0.13001919     1.00390
O840        O  0.27688352  0.45635243  0.11315265    -0.80150
O841        O  0.24877148  0.47006169  0.07223521    -0.82800
C842        C  0.23285752  0.48280180  0.06057297     1.04920
O843        O  0.23076737  0.50588303  0.06409424    -0.75560
O844        O  0.20865716  0.51184568  0.11015594    -0.75750
C845        C  0.20679870  0.51189179  0.13357186     1.04870
O846        O  0.27291661  0.53808303  0.14254886    -0.83070
O847        O  0.29610949  0.49244861  0.14173914    -0.80130
C848        C  0.31327617  0.49859093  0.12702575     1.00410
O849        O  0.30916233  0.49973400  0.10391814    -0.80160
O850        O  0.28268546  0.50989735  0.06072650    -0.82770
C851        C  0.27925339  0.53317100  0.06009509     1.04880
O852        O  0.26590650  0.54379384  0.07614738    -0.75590
O853        O  0.24192463  0.55270220  0.12023803    -0.75730
C854        C  0.25915443  0.55584117  0.13592910     1.04840
Cr855      Cr  0.26080014  0.50349728  0.14027214     1.93740
Cr856      Cr  0.27809093  0.48544317  0.08896269     1.93210
Cr857      Cr  0.23841519  0.52682471  0.09366456     1.39100
O858        O  0.25898738  0.50516323  0.10746581    -1.20820
O859        O  0.16594063  0.53690035  0.25307549    -0.83070
O860        O  0.16277059  0.49182925  0.27608321    -0.80120
C861        C  0.14874352  0.49993890  0.29305374     1.00390
O862        O  0.12568861  0.50204338  0.28886858    -0.80150
O863        O  0.08287800  0.51359482  0.26194326    -0.82800
C864        C  0.08347341  0.53678226  0.25819031     1.04920
O865        O  0.10052194  0.54656692  0.24552938    -0.75560
O866        O  0.14491861  0.55318595  0.22199744    -0.75750
C867        C  0.16032367  0.55518217  0.23969037     1.04870
O868        O  0.16928185  0.51329843  0.20540291    -0.83070
O869        O  0.15937998  0.46899391  0.22798883    -0.80130
C870        C  0.14892321  0.45234045  0.24059913     1.00410
O871        O  0.13257892  0.45773312  0.25686899    -0.80160
O872        O  0.09219552  0.47330590  0.22850694    -0.82770
C873        C  0.08128734  0.48664245  0.21244040     1.04880
O874        O  0.08623284  0.50948360  0.21018469    -0.75590
O875        O  0.13235661  0.51316616  0.18826929    -0.75730
C876        C  0.15566756  0.51208649  0.18629134     1.04840
Cr877      Cr  0.16190656  0.50295396  0.24049716     1.93740
Cr878      Cr  0.10984832  0.48791428  0.25786914     1.93210
Cr879      Cr  0.11689280  0.52886307  0.21804711     1.39100
O880        O  0.12933623  0.50644149  0.23860053    -1.20820
O881        O  0.25294283  0.66802422  0.00660922    -0.83070
O882        O  0.29783105  0.65786111  0.98598599    -0.80120
C883        C  0.31499495  0.64706304  0.97441266     1.00390
O884        O  0.31022570  0.62968446  0.95902642    -0.80150
O885        O  0.29341376  0.59045779  0.98850230    -0.82800
C886        C  0.27941554  0.58015036  0.00442479     1.04920
O887        O  0.25649109  0.58503555  0.00545165    -0.75560
O888        O  0.25414872  0.63192725  0.02522414    -0.75750
C889        C  0.25586240  0.65521731  0.02599508     1.04870
O890        O  0.23032990  0.66275915  0.95888202    -0.83070
O891        O  0.27661663  0.65889223  0.93755281    -0.80130
C892        C  0.26911731  0.64430724  0.92091437     1.00410
O893        O  0.26679843  0.62146052  0.92579410    -0.80160
O894        O  0.25372322  0.58010970  0.95415762    -0.82770
C895        C  0.23035735  0.58087870  0.95739892     1.04880
O896        O  0.22031009  0.59836183  0.96923281    -0.75590
O897        O  0.21393694  0.64368062  0.99115158    -0.75730
C898        C  0.21203615  0.65827691  0.97278525     1.04840
Cr899      Cr  0.26416831  0.65949136  0.97241201     1.93740
Cr900      Cr  0.27981460  0.60690248  0.95789653     1.93210
Cr901      Cr  0.23789297  0.61559790  0.99627508     1.39100
O902        O  0.26071024  0.62709976  0.97560477    -1.20820
O903        O  0.09502030  0.53376401  0.98867225    -0.83070
O904        O  0.10530570  0.51256263  0.94341137    -0.80120
C905        C  0.11574972  0.50008706  0.92658941     1.00390
O906        O  0.13150170  0.48333114  0.93203847    -0.80150
O907        O  0.17139992  0.51074075  0.94888378    -0.82800
C908        C  0.18232055  0.52625662  0.96269399     1.04920
O909        O  0.17789432  0.52742325  0.98581780    -0.75560
O910        O  0.13231260  0.55003732  0.99018425    -0.75750
C911        C  0.10908755  0.55251236  0.98851812     1.04870
O912        O  0.09668431  0.48563061  0.01093216    -0.83070
O913        O  0.10086051  0.46422369  0.96492556    -0.80130
C914        C  0.11446277  0.44686574  0.97276477     1.00410
O915        O  0.13749682  0.45040864  0.97561322    -0.80160
O916        O  0.18057422  0.47606482  0.98843944    -0.82770
C917        C  0.17965616  0.47862805  0.01186186     1.04880
O918        O  0.16259228  0.49102454  0.02190502    -0.75590
O919        O  0.11856854  0.51516590  0.02881871    -0.75730
C920        C  0.10242734  0.49809316  0.02987274     1.04840
Cr921      Cr  0.10186331  0.49912328  0.97725305     1.93740
Cr922      Cr  0.15378626  0.48128436  0.96256040     1.93210
Cr923      Cr  0.14696995  0.51944826  0.00491589     1.39100
O924        O  0.13436838  0.50014311  0.98151707    -1.20820
O925        O  0.03144377  0.48513442  0.07634326    -0.83070
O926        O  0.98459196  0.46466738  0.07975011    -0.80120
C927        C  0.99289077  0.44768323  0.09337184     1.00390
O928        O  0.99588398  0.45175828  0.11636796    -0.80150
O929        O  0.00836468  0.47883082  0.15910933    -0.82800
C930        C  0.03158880  0.48306900  0.15898386     1.04920
O931        O  0.04143602  0.49604649  0.14216385    -0.75560
O932        O  0.04821182  0.51670111  0.09632102    -0.75750
C933        C  0.04998203  0.49845466  0.08151147     1.04870
O934        O  0.00980785  0.53276598  0.07104611    -0.83070
O935        O  0.96434923  0.51296805  0.08194374    -0.80130
C936        C  0.94725460  0.50087738  0.09236375     1.00410
O937        O  0.95208766  0.48489056  0.10921800    -0.80160
O938        O  0.96814850  0.51279290  0.14944581    -0.82770
C939        C  0.98133192  0.52954570  0.15937377     1.04880
O940        O  0.00414170  0.53188835  0.15415291    -0.75590
O941        O  0.00783793  0.55140014  0.10702238    -0.75730
C942        C  0.00696906  0.55220462  0.08361025     1.04840
Cr943      Cr  0.99780171  0.49902771  0.07971586     1.93740
Cr944      Cr  0.98240590  0.48314001  0.13208881     1.93210
Cr945      Cr  0.02371895  0.52250156  0.12406189     1.39100
O946        O  0.00128481  0.50165759  0.11228626    -1.20820
O947        O  0.01009898  0.67130813  0.20008079    -0.83070
O948        O  0.96620338  0.66529018  0.22392382    -0.80120
C949        C  0.94859039  0.65441418  0.23479192     1.00390
O950        O  0.95262250  0.63671570  0.25000536    -0.80150
O951        O  0.96729048  0.59574594  0.22219937    -0.82800
C952        C  0.98059661  0.58369191  0.20704273     1.04920
O953        O  0.00349962  0.58821175  0.20486449    -0.75560
O954        O  0.00650411  0.63459202  0.18281879    -0.75750
C955        C  0.00599939  0.65794939  0.18125549     1.04870
O956        O  0.03592062  0.66650477  0.24650946    -0.83070
O957        O  0.99058875  0.66597292  0.27099477    -0.80130
C958        C  0.99593221  0.65052408  0.28774530     1.00410
O959        O  0.99589321  0.62762379  0.28304289    -0.80160
O960        O  0.00769196  0.58594352  0.25642741    -0.82770
C961        C  0.03107136  0.58645769  0.25316204     1.04880
O962        O  0.04116525  0.60221008  0.23904883    -0.75590
O963        O  0.04887742  0.64575104  0.21389572    -0.75730
C964        C  0.05300890  0.66075398  0.23148514     1.04840
Cr965      Cr  0.00078154  0.66471948  0.23534173     1.93740
Cr966      Cr  0.98219834  0.61306396  0.25161401     1.93210
Cr967      Cr  0.02330029  0.61867349  0.21173244     1.39100
O968        O  0.00188873  0.63200326  0.23287408    -1.20820
O969        O  0.26794730  0.98140890  0.81490032    -0.83070
O970        O  0.22320992  0.00374371  0.82071318    -0.80120
C971        C  0.20521333  0.01417375  0.83137269     1.00390
O972        O  0.20861529  0.02919020  0.84935348    -0.80150
O973        O  0.22290244  0.00050575  0.89002335    -0.82800
C974        C  0.23622978  0.98505875  0.90173709     1.04920
O975        O  0.25932150  0.98390377  0.89805204    -0.75560
O976        O  0.26368298  0.96338682  0.85124024    -0.75750
C977        C  0.26361512  0.96231198  0.82779899     1.04870
O978        O  0.29205740  0.02854952  0.82158867    -0.83070
O979        O  0.24604858  0.05133392  0.82129710    -0.80130
C980        C  0.25088969  0.06798162  0.83698161     1.00410
O981        O  0.25089672  0.06289732  0.85994383    -0.80160
O982        O  0.26217201  0.03523477  0.90184591    -0.82770
C983        C  0.28556466  0.03209526  0.90216349     1.04880
O984        O  0.29640835  0.01921004  0.88589912    -0.75590
O985        O  0.30547861  0.99582321  0.84182408    -0.75730
C986        C  0.30948533  0.01419165  0.82778900     1.04840
Cr987      Cr  0.25738524  0.01614565  0.82212764     1.93740
Cr988      Cr  0.23752302  0.03080787  0.87380145     1.93210
Cr989      Cr  0.27952859  0.99212298  0.86823002     1.39100
O990        O  0.25795212  0.01301668  0.85488479    -1.20820
O991        O  0.28378950  0.84372987  0.97299517    -0.83070
O992        O  0.26274167  0.85342537  0.01792547    -0.80120
C993        C  0.25089307  0.86388977  0.03511970     1.00390
O994        O  0.23544894  0.88129331  0.03046813    -0.80150
O995        O  0.26374520  0.92175098  0.01519463    -0.82800
C996        C  0.28045258  0.93216690  0.00229328     1.04920
O997        O  0.28348507  0.92682321  0.97957273    -0.75560
O998        O  0.30278746  0.87941067  0.97613334    -0.75750
C999        C  0.30330958  0.85601698  0.97670879     1.04870
O1000       O  0.23662437  0.85016660  0.95005410    -0.83070
O1001       O  0.21472375  0.85248908  0.99630087    -0.80130
C1002       C  0.19802662  0.86691880  0.98873667     1.00410
O1003       O  0.20276774  0.88974525  0.98640139    -0.80160
O1004       O  0.23027683  0.93165974  0.97437196    -0.82770
C1005       C  0.23465403  0.93157289  0.95112786     1.04880
O1006       O  0.24835541  0.91525732  0.94141294    -0.75590
O1007       O  0.26931242  0.86947743  0.93469664    -0.75730
C1008       C  0.25105730  0.85478766  0.93220489     1.04840
Cr1009     Cr  0.24963232  0.85246157  0.98410857     1.93740
Cr1010     Cr  0.23424572  0.90462009  0.00033279     1.93210
Cr1011     Cr  0.27442498  0.89689598  0.95960962     1.39100
O1012       O  0.25287340  0.88498332  0.98143317    -1.20820
O1013       O  0.60019870  0.53877007  0.46939872    -0.83070
O1014       O  0.60123361  0.49319610  0.44604250    -0.80120
C1015       C  0.61580592  0.49942783  0.42878413     1.00390
O1016       O  0.63887052  0.50098128  0.43279373    -0.80150
O1017       O  0.68208638  0.51079691  0.45933026    -0.82800
C1018       C  0.68277097  0.53401750  0.46299409     1.04920
O1019       O  0.66678035  0.54456519  0.47647454    -0.75560
O1020       O  0.62262505  0.55329084  0.50040831    -0.75750
C1021       C  0.60677215  0.55644396  0.48330072     1.04870
O1022       O  0.59590420  0.51457796  0.51631974    -0.83070
O1023       O  0.60346613  0.46980434  0.49354851    -0.80130
C1024       C  0.61332901  0.45271413  0.48100398     1.00410
O1025       O  0.62974884  0.45747529  0.46465530    -0.80160
O1026       O  0.67031880  0.47065938  0.49277129    -0.82770
C1027       C  0.68184576  0.48309042  0.50895973     1.04880
O1028       O  0.67860231  0.50619624  0.51127674    -0.75590
O1029       O  0.63270391  0.51214195  0.53350671    -0.75730
C1030       C  0.60931902  0.51216698  0.53537795     1.04840
Cr1031     Cr  0.60270253  0.50417882  0.48137947     1.93740
Cr1032     Cr  0.65384664  0.48643621  0.46367454     1.93210
Cr1033     Cr  0.64919918  0.52738674  0.50382280     1.39100
O1034       O  0.63542704  0.50598525  0.48302548    -1.20820
O1035       O  0.48865869  0.60292725  0.51356528    -0.83070
O1036       O  0.46657141  0.60633613  0.46770383    -0.80120
C1037       C  0.45048151  0.62190405  0.47450436     1.00390
O1038       O  0.45611200  0.64459600  0.47589120    -0.80150
O1039       O  0.48520302  0.68516392  0.48831095    -0.82800
C1040       C  0.48797279  0.68437101  0.51180577     1.04920
O1041       O  0.49967530  0.66687655  0.52199383    -0.75560
O1042       O  0.52144761  0.62161173  0.52909618    -0.75750
C1043       C  0.50284735  0.60748210  0.53158369     1.04870
O1044       O  0.53608196  0.59629423  0.49012393    -0.83070
O1045       O  0.51469749  0.60538870  0.44537708    -0.80130
C1046       C  0.50357657  0.61628374  0.42796807     1.00410
O1047       O  0.48884327  0.63431717  0.43243896    -0.80160
O1048       O  0.51928797  0.67298112  0.44842309    -0.82770
C1049       C  0.53515942  0.68348462  0.46221700     1.04880
O1050       O  0.53586253  0.67933023  0.48532634    -0.75590
O1051       O  0.55514809  0.63221525  0.48851106    -0.75730
C1052       C  0.55566173  0.60887981  0.48727790     1.04840
Cr1053     Cr  0.50171309  0.60513208  0.47939366     1.93740
Cr1054     Cr  0.48840947  0.65777628  0.46250744     1.93210
Cr1055     Cr  0.52651481  0.64917070  0.50455079     1.39100
O1056       O  0.50564617  0.63752474  0.48200839    -1.20820
O1057       O  0.53738587  0.51302063  0.57272321    -0.83070
O1058       O  0.51446507  0.46868107  0.58152049    -0.80120
C1059       C  0.50217100  0.45178045  0.59195946     1.00390
O1060       O  0.48605301  0.45689209  0.60863115    -0.80150
O1061       O  0.51411849  0.47202570  0.64951276    -0.82800
C1062       C  0.53008763  0.48522117  0.66069378     1.04920
O1063       O  0.53255965  0.50804732  0.65584740    -0.75560
O1064       O  0.55449306  0.51198420  0.60969670    -0.75750
C1065       C  0.55647213  0.51139364  0.58634412     1.04870
O1066       O  0.48983758  0.53692450  0.57667033    -0.83070
O1067       O  0.46660570  0.49190202  0.57889208    -0.80130
C1068       C  0.44976432  0.49989417  0.59312948     1.00410
O1069       O  0.45401386  0.50143674  0.61623145    -0.80160
O1070       O  0.48092401  0.51253442  0.65923532    -0.82770
C1071       C  0.48500981  0.53571993  0.65898180     1.04880
O1072       O  0.49766109  0.54553901  0.64194517    -0.75590
O1073       O  0.52123808  0.55249334  0.59766714    -0.75730
C1074       C  0.50338254  0.55498711  0.58255173     1.04840
Cr1075     Cr  0.50221690  0.50279924  0.57990550     1.93740
Cr1076     Cr  0.48493018  0.48695817  0.63187489     1.93210
Cr1077     Cr  0.52492731  0.52776414  0.62536228     1.39100
O1078       O  0.50425092  0.50563915  0.61259744    -1.20820
O1079       O  0.59935955  0.03966667  0.96913165    -0.83070
O1080       O  0.60044302  0.99394601  0.94562229    -0.80120
C1081       C  0.61578532  0.99974367  0.92890283     1.00390
O1082       O  0.63869776  0.00064232  0.93384360    -0.80150
O1083       O  0.68042648  0.01207946  0.96121363    -0.82800
C1084       C  0.68032435  0.03535673  0.96471555     1.04920
O1085       O  0.66446779  0.04552092  0.97870140    -0.75560
O1086       O  0.61974373  0.05332006  0.00182009    -0.75750
C1087       C  0.60507659  0.05702426  0.98380339     1.04870
O1088       O  0.59334988  0.01502302  0.01581871    -0.83070
O1089       O  0.60092283  0.97066192  0.99321715    -0.80130
C1090       C  0.61192302  0.95323815  0.98222469     1.00410
O1091       O  0.62932314  0.95748918  0.96673207    -0.80160
O1092       O  0.66960112  0.97178779  0.99524388    -0.82770
C1093       C  0.68081205  0.98468169  0.01134947     1.04880
O1094       O  0.67653420  0.00758935  0.01355907    -0.75590
O1095       O  0.62952143  0.01123750  0.03406762    -0.75730
C1096       C  0.60607923  0.01073565  0.03501078     1.04840
Cr1097     Cr  0.60105057  0.00492941  0.98103464     1.93740
Cr1098     Cr  0.65299660  0.98687494  0.96551650     1.93210
Cr1099     Cr  0.64661819  0.02776060  0.00545536     1.39100
O1100       O  0.63376133  0.00643150  0.98399729    -1.20820
O1101       O  0.47516561  0.91529704  0.00348819    -0.83070
O1102       O  0.52009124  0.91479419  0.02872554    -0.80120
C1103       C  0.51394588  0.89960738  0.04542360     1.00390
O1104       O  0.51297885  0.87670043  0.04052464    -0.80150
O1105       O  0.50252666  0.83479334  0.01246193    -0.82800
C1106       C  0.47952854  0.83461990  0.00722808     1.04920
O1107       O  0.47001359  0.85066737  0.99310044    -0.75560
O1108       O  0.46306675  0.89517536  0.97004885    -0.75750
C1109       C  0.45842785  0.90948484  0.98811521     1.04870
O1110       O  0.50165577  0.92161821  0.95773926    -0.83070
O1111       O  0.54515338  0.91418453  0.98218871    -0.80130
C1112       C  0.56219844  0.90328847  0.99389597     1.00410
O1113       O  0.55743562  0.88585532  0.00919411    -0.80160
O1114       O  0.54434179  0.84526544  0.98041854    -0.82770
C1115       C  0.53218082  0.83411466  0.96367734     1.04880
O1116       O  0.50946756  0.83868447  0.96013741    -0.75590
O1117       O  0.50669641  0.88561371  0.93966020    -0.75730
C1118       C  0.50681554  0.90899144  0.93870047     1.04840
Cr1119     Cr  0.51041002  0.91393125  0.99294098     1.93740
Cr1120     Cr  0.52797121  0.86217089  0.00935840     1.93210
Cr1121     Cr  0.48893196  0.86849918  0.96741196     1.39100
O1122       O  0.50922483  0.88129413  0.98992274    -1.20820
O1123       O  0.52732618  0.97910409  0.89327351    -0.83070
O1124       O  0.55030054  0.02517164  0.89234622    -0.80120
C1125       C  0.56755985  0.01906133  0.87780775     1.00390
O1126       O  0.56354729  0.01787290  0.85468993    -0.80150
O1127       O  0.53782738  0.00570940  0.81204818    -0.82800
C1128       C  0.53439109  0.98242716  0.81243834     1.04920
O1129       O  0.51999564  0.97241359  0.82801104    -0.75560
O1130       O  0.49548372  0.96489455  0.87199512    -0.75750
C1131       C  0.51293230  0.96154915  0.88744666     1.04870
O1132       O  0.48036477  0.00331140  0.89720655    -0.83070
O1133       O  0.50275672  0.04783897  0.88986589    -0.80130
C1134       C  0.51428498  0.06521614  0.87931574     1.00410
O1135       O  0.53012760  0.06093796  0.86222531    -0.80160
O1136       O  0.50317998  0.04584095  0.82067499    -0.82770
C1137       C  0.48758442  0.03263081  0.80902033     1.04880
O1138       O  0.48523585  0.00981261  0.81386892    -0.75590
O1139       O  0.46329596  0.00660390  0.86037912    -0.75730
C1140       C  0.46160392  0.00727040  0.88379329     1.04840
Cr1141     Cr  0.51517941  0.01371553  0.89061110     1.93740
Cr1142     Cr  0.53236634  0.03126442  0.83890640     1.93210
Cr1143     Cr  0.49254018  0.99012935  0.84452848     1.39100
O1144       O  0.51334391  0.01183018  0.85779032    -1.20820
O1145       O  0.59559099  0.23016740  0.25483360    -0.83070
O1146       O  0.59882865  0.27608007  0.27623341    -0.80120
C1147       C  0.61315305  0.26902569  0.29341024     1.00390
O1148       O  0.63622367  0.26737288  0.28938083    -0.80150
O1149       O  0.67885959  0.25462807  0.26352573    -0.82800
C1150       C  0.67791505  0.23121738  0.26171621     1.04920
O1151       O  0.66097583  0.22076239  0.24948649    -0.75560
O1152       O  0.61725415  0.21270218  0.22494107    -0.75750
C1153       C  0.60136843  0.21134641  0.24227747     1.04870
O1154       O  0.59327983  0.25236515  0.20631287    -0.83070
O1155       O  0.60193427  0.29769868  0.22760727    -0.80130
C1156       C  0.61235216  0.31493482  0.23947489     1.00410
O1157       O  0.62903621  0.31019143  0.25559688    -0.80160
O1158       O  0.66958894  0.29318771  0.22784569    -0.82770
C1159       C  0.68111243  0.27892334  0.21306750     1.04880
O1160       O  0.67637006  0.25591695  0.21233548    -0.75590
O1161       O  0.63061402  0.25112541  0.18985283    -0.75730
C1162       C  0.60735915  0.25245670  0.18746279     1.04840
Cr1163     Cr  0.59986448  0.26386431  0.24112432     1.93740
Cr1164     Cr  0.65188824  0.28006457  0.25790441     1.93210
Cr1165     Cr  0.64538531  0.23695687  0.22061278     1.39100
O1166       O  0.63251556  0.26048228  0.23962430    -1.20820
O1167       O  0.53777015  0.24967085  0.14929705    -0.83070
O1168       O  0.51523282  0.29454387  0.14182464    -0.80120
C1169       C  0.50336247  0.31173405  0.13128899     1.00390
O1170       O  0.48739930  0.30707864  0.11454330    -0.80150
O1171       O  0.51518063  0.29159393  0.07372871    -0.82800
C1172       C  0.53022526  0.27795567  0.06184455     1.04920
O1173       O  0.53144453  0.25490635  0.06608501    -0.75560
O1174       O  0.55430680  0.25018208  0.11194257    -0.75750
C1175       C  0.55657324  0.25101666  0.13529355     1.04870
O1176       O  0.49037747  0.22569493  0.14667700    -0.83070
O1177       O  0.46747655  0.27151350  0.14480180    -0.80130
C1178       C  0.45012866  0.26584431  0.13011085     1.00410
O1179       O  0.45416207  0.26453837  0.10698979    -0.80160
O1180       O  0.48001184  0.25254668  0.06426887    -0.82770
C1181       C  0.48221880  0.22919857  0.06493237     1.04880
O1182       O  0.49547134  0.21865091  0.08107699    -0.75590
O1183       O  0.52087075  0.21022194  0.12436438    -0.75730
C1184       C  0.50390580  0.20760864  0.14045458     1.04840
Cr1185     Cr  0.50276311  0.26021528  0.14311541     1.93740
Cr1186     Cr  0.48550331  0.27754524  0.09139908     1.93210
Cr1187     Cr  0.52397729  0.23528028  0.09682993     1.39100
O1188       O  0.50420758  0.25782699  0.11033516    -1.20820
O1189       O  0.50959397  0.16780218  0.21136326    -0.83070
O1190       O  0.46460799  0.15829344  0.23215207    -0.80120
C1191       C  0.44726833  0.14800858  0.24394126     1.00390
O1192       O  0.45171554  0.13090179  0.25977347    -0.80150
O1193       O  0.46750771  0.09035437  0.23175013    -0.82800
C1194       C  0.48088430  0.07973159  0.21553172     1.04920
O1195       O  0.50378592  0.08469106  0.21351268    -0.75560
O1196       O  0.50751413  0.13161968  0.19310392    -0.75750
C1197       C  0.50668714  0.15498978  0.19201673     1.04870
O1198       O  0.53221954  0.16280022  0.25895274    -0.83070
O1199       O  0.48579757  0.16000472  0.28052591    -0.80130
C1200       C  0.49352078  0.14580251  0.29738784     1.00410
O1201       O  0.49537164  0.12284265  0.29307896    -0.80160
O1202       O  0.50755894  0.08065878  0.26629952    -0.82770
C1203       C  0.53092478  0.08111875  0.26292123     1.04880
O1204       O  0.54092677  0.09743952  0.24940133    -0.75590
O1205       O  0.54814770  0.14265605  0.22709985    -0.75730
C1206       C  0.55032488  0.15793487  0.24491339     1.04840
Cr1207     Cr  0.49824721  0.15973277  0.24565655     1.93740
Cr1208     Cr  0.48179211  0.10766284  0.26155848     1.93210
Cr1209     Cr  0.52340571  0.11494900  0.22230543     1.39100
O1210       O  0.50106887  0.12717070  0.24306817    -1.20820
O1211       O  0.66955134  0.03535569  0.23313036    -0.83070
O1212       O  0.66229264  0.01250119  0.27752915    -0.80120
C1213       C  0.65178366  0.00101228  0.29498384     1.00390
O1214       O  0.63409107  0.98582581  0.29074758    -0.80150
O1215       O  0.59310667  0.01393666  0.27608098    -0.82800
C1216       C  0.58169829  0.02970037  0.26288039     1.04920
O1217       O  0.58642244  0.03210598  0.24003904    -0.75560
O1218       O  0.63317467  0.05311798  0.23707103    -0.75750
C1219       C  0.65658790  0.05433518  0.23745983     1.04870
O1220       O  0.66401512  0.98873368  0.20827724    -0.83070
O1221       O  0.66323422  0.96529492  0.25420438    -0.80130
C1222       C  0.64816924  0.94840223  0.24844859     1.00410
O1223       O  0.62517463  0.95303616  0.24735326    -0.80160
O1224       O  0.58300433  0.98028738  0.23551543    -0.82770
C1225       C  0.58300725  0.98445920  0.21223237     1.04880
O1226       O  0.59933108  0.99793882  0.20220913    -0.75590
O1227       O  0.64368255  0.02140824  0.19476521    -0.75730
C1228       C  0.65821743  0.00338969  0.19090258     1.04840
Cr1229     Cr  0.66223097  0.00054373  0.24315057     1.93740
Cr1230     Cr  0.61035088  0.98450388  0.26109331     1.93210
Cr1231     Cr  0.61663318  0.02456786  0.22022394     1.39100
O1232       O  0.62951392  0.00320145  0.24163681    -1.20820
O1233       O  0.53560428  0.98990767  0.07979709    -0.83070
O1234       O  0.48987509  0.96599928  0.08040896    -0.80120
C1235       C  0.49543548  0.94907095  0.09552100     1.00390
O1236       O  0.49636480  0.95369736  0.11856237    -0.80150
O1237       O  0.50816486  0.98085416  0.16082151    -0.82800
C1238       C  0.53137579  0.98523041  0.16090322     1.04920
O1239       O  0.54129981  0.99910894  0.14482260    -0.75560
O1240       O  0.54876239  0.02262567  0.10028084    -0.75750
C1241       C  0.55278530  0.00482597  0.08547644     1.04870
O1242       O  0.51030447  0.03617364  0.07431196    -0.83070
O1243       O  0.46610869  0.01296661  0.08137915    -0.80130
C1244       C  0.44869514  0.00150403  0.09197258     1.00410
O1245       O  0.45294547  0.98646553  0.10980952    -0.80160
O1246       O  0.46744094  0.01445452  0.15110840    -0.82770
C1247       C  0.48046274  0.03036723  0.16254139     1.04880
O1248       O  0.50321053  0.03309733  0.15760232    -0.75590
O1249       O  0.50611256  0.05397703  0.11066983    -0.75730
C1250       C  0.50577946  0.05512803  0.08722378     1.04840
Cr1251     Cr  0.50059186  0.00132927  0.08159352     1.93740
Cr1252     Cr  0.48257889  0.98515338  0.13354024     1.93210
Cr1253     Cr  0.52313886  0.02557725  0.12734652     1.39100
O1254       O  0.50196209  0.00399585  0.11439370    -1.20820
O1255       O  0.48773304  0.09961647  0.01619831    -0.83070
O1256       O  0.46503725  0.10106042  0.96997223    -0.80120
C1257       C  0.44789737  0.11584568  0.97577530     1.00390
O1258       O  0.45228200  0.13885198  0.97701723    -0.80150
O1259       O  0.47875815  0.18078601  0.99000105    -0.82800
C1260       C  0.48174472  0.17986481  0.01338269     1.04920
O1261       O  0.49545118  0.16381012  0.02342890    -0.75560
O1262       O  0.51981449  0.12017027  0.03077369    -0.75750
C1263       C  0.50188230  0.10533953  0.03401794     1.04870
O1264       O  0.53500377  0.09546027  0.99199247    -0.83070
O1265       O  0.51277117  0.10310300  0.94729540    -0.80130
C1266       C  0.50176854  0.11417360  0.92986749     1.00410
O1267       O  0.48614361  0.13135897  0.93421053    -0.80160
O1268       O  0.51383070  0.17195981  0.95016024    -0.82770
C1269       C  0.52930881  0.18328237  0.96381435     1.04880
O1270       O  0.53075489  0.17857115  0.98677595    -0.75590
O1271       O  0.55233746  0.13217016  0.98942796    -0.75730
C1272       C  0.55389072  0.10885286  0.98842214     1.04840
Cr1273     Cr  0.50018829  0.10230855  0.98153320     1.93740
Cr1274     Cr  0.48398524  0.15423863  0.96416813     1.93210
Cr1275     Cr  0.52306509  0.14774576  0.00585911     1.39100
O1276       O  0.50243559  0.13495129  0.98368342    -1.20820
O1277       O  0.66931046  0.22786962  0.99139306    -0.83070
O1278       O  0.66124500  0.24837173  0.94552456    -0.80120
C1279       C  0.65151346  0.26044390  0.92800688     1.00390
O1280       O  0.63444022  0.27639350  0.93240885    -0.80150
O1281       O  0.59270503  0.24966686  0.94918437    -0.82800
C1282       C  0.58135895  0.23443104  0.96319431     1.04920
O1283       O  0.58628722  0.23304260  0.98616171    -0.75560
O1284       O  0.63223694  0.21112526  0.99057844    -0.75750
C1285       C  0.65553238  0.20899189  0.98976665     1.04870
O1286       O  0.66588517  0.27638632  0.01282915    -0.83070
O1287       O  0.66431617  0.29692649  0.96623410    -0.80130
C1288       C  0.65054289  0.31444577  0.97325902     1.00410
O1289       O  0.62737354  0.31075452  0.97539116    -0.80160
O1290       O  0.58370058  0.28503775  0.98840192    -0.82770
C1291       C  0.58372928  0.28177500  0.01186692     1.04880
O1292       O  0.60062049  0.26936792  0.02217965    -0.75590
O1293       O  0.64475020  0.24588882  0.02992789    -0.75730
C1294       C  0.66000724  0.26370531  0.03157998     1.04840
Cr1295     Cr  0.66267408  0.26227103  0.97923675     1.93740
Cr1296     Cr  0.61100099  0.27935205  0.96261480     1.93210
Cr1297     Cr  0.61695058  0.24131710  0.00538870     1.39100
O1298       O  0.62996022  0.26078252  0.98221703    -1.20820
O1299       O  0.97492680  0.84532876  0.23524985    -0.83070
O1300       O  0.99740504  0.85272074  0.19036889    -0.80120
C1301       C  0.00910801  0.86310308  0.17296050     1.00390
O1302       O  0.02487808  0.88009325  0.17739011    -0.80150
O1303       O  0.99679692  0.92038247  0.19309401    -0.82800
C1304       C  0.98199952  0.93220439  0.20698487     1.04920
O1305       O  0.98109733  0.92817342  0.23010936    -0.75560
O1306       O  0.95826565  0.88249542  0.23477612    -0.75750
C1307       C  0.95605782  0.85920562  0.23389238     1.04870
O1308       O  0.02238993  0.84839172  0.25926708    -0.83070
O1309       O  0.04541302  0.85039861  0.21340404    -0.80130
C1310       C  0.06265470  0.86543251  0.21854956     1.00410
O1311       O  0.05829396  0.88840739  0.21977699    -0.80160
O1312       O  0.03202828  0.93069775  0.23214112    -0.82770
C1313       C  0.02985254  0.93021986  0.25562824     1.04880
O1314       O  0.01696495  0.91384159  0.26632354    -0.75590
O1315       O  0.99169223  0.87033506  0.27476851    -0.75730
C1316       C  0.00868959  0.85437238  0.27734625     1.04840
Cr1317     Cr  0.00999182  0.85173315  0.22470085     1.93740
Cr1318     Cr  0.02670547  0.90338822  0.20701729     1.93210
Cr1319     Cr  0.98855165  0.89773775  0.24970923     1.39100
O1320       O  0.00834635  0.88438471  0.22703457    -1.20820
O1321       O  0.84593838  0.00325781  0.26264133    -0.83070
O1322       O  0.85297446  0.04776042  0.24011804    -0.80120
C1323       C  0.86343017  0.06518841  0.22858183     1.00390
O1324       O  0.88051276  0.06095154  0.21269168    -0.80150
O1325       O  0.92209738  0.04581489  0.23947955    -0.82800
C1326       C  0.93384626  0.03255873  0.25495702     1.04920
O1327       O  0.92910145  0.00973620  0.25726970    -0.75560
O1328       O  0.88280564  0.00668921  0.27951537    -0.75750
C1329       C  0.85942817  0.00738760  0.28132426     1.04870
O1330       O  0.84976742  0.97898715  0.21560182    -0.83070
O1331       O  0.85047174  0.02503312  0.19254061    -0.80130
C1332       C  0.86499302  0.01905366  0.17520929     1.00410
O1333       O  0.88809041  0.01789216  0.17916582    -0.80160
O1334       O  0.93077526  0.00563029  0.20481318    -0.82770
C1335       C  0.93048023  0.98233510  0.20834732     1.04880
O1336       O  0.91487407  0.97233053  0.22271248    -0.75590
O1337       O  0.87107291  0.96488929  0.24749683    -0.75730
C1338       C  0.85568894  0.96146268  0.23001695     1.04840
Cr1339     Cr  0.85233599  0.01361624  0.22771769     1.93740
Cr1340     Cr  0.90388738  0.03124759  0.21033346     1.93210
Cr1341     Cr  0.89848007  0.99010634  0.25022109     1.39100
O1342       O  0.88512266  0.01178358  0.22942599    -1.20820
O1343       O  0.22987639  0.25587692  0.56917379    -0.83070
O1344       O  0.25369862  0.30004325  0.57622552    -0.80120
C1345       C  0.26586947  0.31723122  0.58633364     1.00390
O1346       O  0.28148564  0.31264536  0.60350659    -0.80150
O1347       O  0.25230244  0.29990691  0.64351808    -0.82800
C1348       C  0.23655458  0.28745186  0.65553456     1.04920
O1349       O  0.23403028  0.26434837  0.65219125    -0.75560
O1350       O  0.21215828  0.25847004  0.60586203    -0.75750
C1351       C  0.21062070  0.25837770  0.58240977     1.04870
O1352       O  0.27641483  0.23058354  0.57459243    -0.83070
O1353       O  0.30078766  0.27551332  0.57606100    -0.80130
C1354       C  0.31727099  0.26965829  0.59168800     1.00410
O1355       O  0.31236085  0.26890909  0.61453025    -0.80160
O1356       O  0.28503080  0.25939816  0.65640589    -0.82770
C1357       C  0.28205501  0.23604748  0.65632102     1.04880
O1358       O  0.26856106  0.22568586  0.64024044    -0.75590
O1359       O  0.24454520  0.21684356  0.59618389    -0.75730
C1360       C  0.26197789  0.21320636  0.58077849     1.04840
Cr1361     Cr  0.26508823  0.26545809  0.57646007     1.93740
Cr1362     Cr  0.28145422  0.28380681  0.62799562     1.93210
Cr1363     Cr  0.24139269  0.24298771  0.62271420     1.39100
O1364       O  0.26251345  0.26419340  0.60916758    -1.20820
O1365       O  0.98854350  0.91472042  0.49957619    -0.83070
O1366       O  0.03531337  0.91054712  0.51971170    -0.80120
C1367       C  0.02805224  0.89564787  0.53621137     1.00390
O1368       O  0.02594117  0.87290818  0.53109853    -0.80150
O1369       O  0.01228872  0.83197394  0.50328909    -0.82800
C1370       C  0.98877956  0.83288139  0.50103758     1.04920
O1371       O  0.97847602  0.85004669  0.48887743    -0.75560
O1372       O  0.97134146  0.89588130  0.46764831    -0.75750
C1373       C  0.96998047  0.91063194  0.48594799     1.04870
O1374       O  0.00994699  0.92067500  0.45141014    -0.83070
O1375       O  0.05538765  0.91050504  0.47069066    -0.80130
C1376       C  0.07292348  0.89996954  0.48191087     1.00410
O1377       O  0.06867358  0.88205196  0.49692514    -0.80160
O1378       O  0.05121582  0.84257455  0.46785487    -0.82770
C1379       C  0.03678613  0.83207874  0.45251530     1.04880
O1380       O  0.01395515  0.83751860  0.45154128    -0.75590
O1381       O  0.01054818  0.88483732  0.43225521    -0.75730
C1382       C  0.01191704  0.90818492  0.43171803     1.04840
Cr1383     Cr  0.02205646  0.91165982  0.48516592     1.93740
Cr1384     Cr  0.03831035  0.85891660  0.49870106     1.93210
Cr1385     Cr  0.99532553  0.86788224  0.46153553     1.39100
O1386       O  0.01866942  0.87924839  0.48165597    -1.20820
O1387       O  0.92665662  0.00662912  0.45019130    -0.83070
O1388       O  0.91707455  0.05115110  0.47257009    -0.80120
C1389       C  0.90669230  0.06782122  0.48523404     1.00390
O1390       O  0.89095373  0.06224624  0.50207811    -0.80150
O1391       O  0.85047180  0.04558944  0.47497211    -0.82800
C1392       C  0.83909281  0.03171105  0.45983853     1.04920
O1393       O  0.84393260  0.00879795  0.45818344    -0.75560
O1394       O  0.88904867  0.00548087  0.43452729    -0.75750
C1395       C  0.91221338  0.00722012  0.43167463     1.04870
O1396       O  0.92572165  0.98333015  0.49810865    -0.83070
O1397       O  0.92177650  0.02869884  0.52059639    -0.80130
C1398       C  0.90828700  0.02009558  0.53774365     1.00410
O1399       O  0.88518219  0.01792585  0.53441131    -0.80160
O1400       O  0.84205603  0.00548274  0.50918443    -0.82770
C1401       C  0.84317712  0.98215282  0.50633771     1.04880
O1402       O  0.86017598  0.97246232  0.49355423    -0.75590
O1403       O  0.90369916  0.96620547  0.46823467    -0.75730
C1404       C  0.91978084  0.96468317  0.48535495     1.04840
Cr1405     Cr  0.92045942  0.01720026  0.48532083     1.93740
Cr1406     Cr  0.86865539  0.03160828  0.50398940     1.93210
Cr1407     Cr  0.87512142  0.98998698  0.46506870     1.39100
O1408       O  0.88791783  0.01305933  0.48456926    -1.20820
O1409       O  0.04635992  0.00795772  0.56320369    -0.83070
O1410       O  0.02367302  0.96367051  0.57271506    -0.80120
C1411       C  0.01152745  0.94693516  0.58360586     1.00390
O1412       O  0.99540769  0.95237654  0.60016477    -0.80150
O1413       O  0.02386281  0.96877132  0.63960987    -0.82800
C1414       C  0.03926889  0.98252452  0.65066722     1.04920
O1415       O  0.04062754  0.00551439  0.64610187    -0.75560
O1416       O  0.06299868  0.00826504  0.60047572    -0.75750
C1417       C  0.06524220  0.00707939  0.57723209     1.04870
O1418       O  0.99842424  0.03165820  0.56603906    -0.83070
O1419       O  0.97563552  0.98661387  0.56999265    -0.80130
C1420       C  0.95900596  0.99461374  0.58451325     1.00410
O1421       O  0.96343666  0.99666124  0.60744188    -0.80160
O1422       O  0.99028680  0.00955739  0.64934732    -0.82770
C1423       C  0.99314626  0.03291144  0.64752908     1.04880
O1424       O  0.00543277  0.04212877  0.62997937    -0.75590
O1425       O  0.02973887  0.04805702  0.58642660    -0.75730
C1426       C  0.01141979  0.05015281  0.57183578     1.04840
Cr1427     Cr  0.01117020  0.99769214  0.57023223     1.93740
Cr1428     Cr  0.99436212  0.98300527  0.62267360     1.93210
Cr1429     Cr  0.03326718  0.02424913  0.61492347     1.39100
O1430       O  0.01314740  0.00143714  0.60273447    -1.20820
O1431       O  0.10421914  0.03939600  0.46184385    -0.83070
O1432       O  0.10623253  0.99410057  0.43775037    -0.80120
C1433       C  0.12042257  0.00042936  0.42021357     1.00390
O1434       O  0.14364283  0.00190503  0.42389887    -0.80150
O1435       O  0.18655088  0.01524150  0.44967751    -0.82800
C1436       C  0.18548141  0.03849930  0.45313021     1.04920
O1437       O  0.16891958  0.04805275  0.46659517    -0.75560
O1438       O  0.12595198  0.05413807  0.49304831    -0.75750
C1439       C  0.10992553  0.05708728  0.47611214     1.04870
O1440       O  0.10277021  0.01395417  0.50862926    -0.83070
O1441       O  0.11025992  0.96997095  0.48483443    -0.80130
C1442       C  0.12109238  0.95311839  0.47276813     1.00410
O1443       O  0.13804543  0.95833729  0.45704466    -0.80160
O1444       O  0.17929537  0.97491523  0.48438470    -0.82770
C1445       C  0.19091300  0.98871165  0.49959992     1.04880
O1446       O  0.18590717  0.01154624  0.50108827    -0.75590
O1447       O  0.14032586  0.01316560  0.52454801    -0.75730
C1448       C  0.11709081  0.01155215  0.52705719     1.04840
Cr1449     Cr  0.10844991  0.00458194  0.47326303     1.93740
Cr1450     Cr  0.16037490  0.98886452  0.45503292     1.93210
Cr1451     Cr  0.15429247  0.02992904  0.49471501     1.39100
O1452       O  0.14118355  0.00759319  0.47439423    -1.20820
O1453       O  0.99129250  0.10205479  0.50681228    -0.83070
O1454       O  0.96951578  0.10581893  0.46063356    -0.80120
C1455       C  0.95290458  0.12025624  0.46844258     1.00390
O1456       O  0.95758425  0.14306823  0.47075619    -0.80150
O1457       O  0.98515755  0.18470732  0.48324250    -0.82800
C1458       C  0.98879973  0.18434392  0.50660035     1.04920
O1459       O  0.00147616  0.16734856  0.51660130    -0.75560
O1460       O  0.02342910  0.12158434  0.52286409    -0.75750
C1461       C  0.00564777  0.10629496  0.52479733     1.04870
O1462       O  0.03865797  0.09678662  0.48379147    -0.83070
O1463       O  0.01775749  0.10708818  0.43901746    -0.80130
C1464       C  0.00588505  0.11761182  0.42189017     1.00410
O1465       O  0.99033699  0.13485442  0.42674897    -0.80160
O1466       O  0.01892887  0.17473768  0.44301130    -0.82770
C1467       C  0.03474537  0.18539216  0.45673482     1.04880
O1468       O  0.03700446  0.17992662  0.47948275    -0.75590
O1469       O  0.05722068  0.13287276  0.48235029    -0.75730
C1470       C  0.05808534  0.10950455  0.48101727     1.04840
Cr1471     Cr  0.00442412  0.10540474  0.47280670     1.93740
Cr1472     Cr  0.98913102  0.15780487  0.45718426     1.93210
Cr1473     Cr  0.02825684  0.14958830  0.49865749     1.39100
O1474       O  0.00738303  0.13786441  0.47615919    -1.20820
O1475       O  0.03659383  0.28781642  0.63646953    -0.83070
O1476       O  0.98973462  0.30752918  0.63308082    -0.80120
C1477       C  0.99649743  0.32413731  0.61799332     1.00390
O1478       O  0.99707562  0.31947277  0.59497350    -0.80150
O1479       O  0.01094841  0.29264569  0.55362792    -0.82800
C1480       C  0.03450446  0.29216526  0.55507442     1.04920
O1481       O  0.04529849  0.28130820  0.57270780    -0.75560
O1482       O  0.05407760  0.25706127  0.61635031    -0.75750
C1483       C  0.05544517  0.27496883  0.63144440     1.04870
O1484       O  0.01553421  0.23877208  0.64042480    -0.83070
O1485       O  0.96988195  0.25827339  0.63244339    -0.80130
C1486       C  0.95183986  0.26834965  0.62159044     1.00410
O1487       O  0.95541972  0.28400518  0.60411850    -0.80160
O1488       O  0.97368322  0.25550147  0.56465635    -0.82770
C1489       C  0.98875945  0.24124987  0.55349612     1.04880
O1490       O  0.01188929  0.24299017  0.55716434    -0.75590
O1491       O  0.01610915  0.22168299  0.60330108    -0.75730
C1492       C  0.01438423  0.21982557  0.62659649     1.04840
Cr1493     Cr  0.00313782  0.27301274  0.63328512     1.93740
Cr1494     Cr  0.98545102  0.28697555  0.58080507     1.93210
Cr1495     Cr  0.03009657  0.25211530  0.58822435     1.39100
O1496       O  0.00599600  0.27050553  0.60068375    -1.20820
O1497       O  0.16753802  0.23419820  0.46316461    -0.83070
O1498       O  0.16436873  0.27944346  0.44038059    -0.80120
C1499       C  0.14939862  0.27245476  0.42373838     1.00390
O1500       O  0.12660819  0.27045912  0.42840891    -0.80150
O1501       O  0.08481711  0.25967092  0.45542001    -0.82800
C1502       C  0.08564247  0.23631505  0.45801878     1.04920
O1503       O  0.10210336  0.22620930  0.47120510    -0.75560
O1504       O  0.14657306  0.21833460  0.49453313    -0.75750
C1505       C  0.16212412  0.21610190  0.47691911     1.04870
O1506       O  0.17200265  0.25768483  0.51071092    -0.83070
O1507       O  0.16272990  0.30219723  0.48842219    -0.80130
C1508       C  0.15287252  0.31910060  0.47570998     1.00410
O1509       O  0.13611224  0.31420540  0.45974981    -0.80160
O1510       O  0.09634752  0.29993441  0.48856593    -0.82770
C1511       C  0.08471908  0.28694535  0.50418543     1.04880
O1512       O  0.08893179  0.26392270  0.50668659    -0.75590
O1513       O  0.13532016  0.25861904  0.52844379    -0.75730
C1514       C  0.15871846  0.25913958  0.53004604     1.04840
Cr1515     Cr  0.16429425  0.26824980  0.47580667     1.93740
Cr1516     Cr  0.11245045  0.28474016  0.45932564     1.93210
Cr1517     Cr  0.11903078  0.24342322  0.49874788     1.39100
O1518       O  0.13176270  0.26554953  0.47815037    -1.20820
O1519       O  0.25702619  0.17496893  0.50972163    -0.83070
O1520       O  0.30177521  0.16631401  0.48777229    -0.80120
C1521       C  0.31895126  0.15557074  0.47611255     1.00390
O1522       O  0.31424303  0.13948518  0.45947852    -0.80150
O1523       O  0.29948509  0.09930836  0.48739694    -0.82800
C1524       C  0.28632717  0.08799734  0.50322300     1.04920
O1525       O  0.26327022  0.09213893  0.50523086    -0.75560
O1526       O  0.25884706  0.13823354  0.52708789    -0.75750
C1527       C  0.25957715  0.16155856  0.52877109     1.04870
O1528       O  0.23347373  0.17102439  0.46238434    -0.83070
O1529       O  0.27945893  0.16864352  0.43981713    -0.80130
C1530       C  0.27172629  0.15430791  0.42305140     1.00410
O1531       O  0.27039955  0.13132721  0.42713700    -0.80160
O1532       O  0.25946754  0.08901621  0.45343477    -0.82770
C1533       C  0.23611462  0.08960051  0.45626501     1.04880
O1534       O  0.22586788  0.10562985  0.46987517    -0.75590
O1535       O  0.21806951  0.14969762  0.49374902    -0.75730
C1536       C  0.21545379  0.16518328  0.47620256     1.04840
Cr1537     Cr  0.26778970  0.16787245  0.47497400     1.93740
Cr1538     Cr  0.28460071  0.11626026  0.45805520     1.93210
Cr1539     Cr  0.24316700  0.12230208  0.49750448     1.39100
O1540       O  0.26527238  0.13528690  0.47698427    -1.20820
O1541       O  0.23395830  0.01571448  0.63939145    -0.83070
O1542       O  0.25760977  0.97157945  0.63255584    -0.80120
C1543       C  0.26976188  0.95450259  0.62222863     1.00390
O1544       O  0.28530118  0.95930730  0.60496053    -0.80150
O1545       O  0.25796302  0.97534286  0.56329127    -0.82800
C1546       C  0.24281792  0.98902264  0.55143692     1.04920
O1547       O  0.24137504  0.01193073  0.55610652    -0.75560
O1548       O  0.21799872  0.01455623  0.60182961    -0.75750
C1549       C  0.21546161  0.01337958  0.62513436     1.04870
O1550       O  0.28092490  0.04083000  0.63728754    -0.83070
O1551       O  0.30483243  0.99554855  0.63603663    -0.80130
C1552       C  0.32238937  0.00134655  0.62162484     1.00410
O1553       O  0.31860309  0.00252368  0.59838134    -0.80160
O1554       O  0.29285867  0.01539510  0.55523100    -0.82770
C1555       C  0.28951598  0.03870809  0.55581516     1.04880
O1556       O  0.27606612  0.04860541  0.57221472    -0.75590
O1557       O  0.24982026  0.05544474  0.61534134    -0.75730
C1558       C  0.26669144  0.05845827  0.63140875     1.04840
Cr1559     Cr  0.26932144  0.00610429  0.63369622     1.93740
Cr1560     Cr  0.28737638  0.98944235  0.58195325     1.93210
Cr1561     Cr  0.24792968  0.03083455  0.58738908     1.39100
O1562       O  0.26814909  0.00859807  0.60086754    -1.20820
O1563       O  0.02785770  0.97944743  0.38755161    -0.83070
O1564       O  0.05165698  0.02485867  0.38588381    -0.80120
C1565       C  0.06868306  0.01874962  0.37097949     1.00390
O1566       O  0.06411075  0.01743102  0.34790638    -0.80150
O1567       O  0.03680670  0.00526961  0.30551434    -0.82800
C1568       C  0.03302854  0.98202246  0.30606568     1.04920
O1569       O  0.01993909  0.97223203  0.32279097    -0.75560
O1570       O  0.99582685  0.96509821  0.36671446    -0.75750
C1571       C  0.01364194  0.96178641  0.38166190     1.04870
O1572       O  0.98097411  0.00436621  0.39189961    -0.83070
O1573       O  0.00425253  0.04866814  0.38403727    -0.80130
C1574       C  0.01582970  0.06577417  0.37303916     1.00410
O1575       O  0.03135378  0.06094081  0.35579085    -0.80160
O1576       O  0.00288635  0.04571550  0.31534682    -0.82770
C1577       C  0.98694603  0.03247746  0.30419024     1.04880
O1578       O  0.98515357  0.00955437  0.30865100    -0.75590
O1579       O  0.96351141  0.00623298  0.35508015    -0.75730
C1580       C  0.96186105  0.00667827  0.37846916     1.04840
Cr1581     Cr  0.01608358  0.01418622  0.38480868     1.93740
Cr1582     Cr  0.03256621  0.03100589  0.33265408     1.93210
Cr1583     Cr  0.99274050  0.99007119  0.33925111     1.39100
O1584       O  0.01371577  0.01193981  0.35207651    -1.20820
O1585       O  0.35053691  0.24073192  0.45697257    -0.83070
O1586       O  0.35421253  0.21802547  0.50258847    -0.80120
C1587       C  0.36938453  0.20161269  0.49556784     1.00390
O1588       O  0.39226119  0.20630484  0.49438522    -0.80150
O1589       O  0.43361184  0.23362706  0.48339678    -0.82800
C1590       C  0.43250884  0.23505106  0.45991866     1.04920
O1591       O  0.41593512  0.24770871  0.44928542    -0.75560
O1592       O  0.37173062  0.27181381  0.44107425    -0.75750
C1593       C  0.35594897  0.25453579  0.43884448     1.04870
O1594       O  0.34653920  0.28797033  0.48075694    -0.83070
O1595       O  0.35552500  0.26600007  0.52533173    -0.80130
C1596       C  0.36603713  0.25415099  0.54249358     1.00410
O1597       O  0.38256605  0.23804263  0.53776030    -0.80160
O1598       O  0.42140186  0.26764546  0.52287872    -0.82770
C1599       C  0.43268256  0.28311621  0.50937370     1.04880
O1600       O  0.42946479  0.28380407  0.48605973    -0.75590
O1601       O  0.38337184  0.30547812  0.48115110    -0.75730
C1602       C  0.36001013  0.30707022  0.48240020     1.04840
Cr1603     Cr  0.35401857  0.25326297  0.49128241     1.93740
Cr1604     Cr  0.40601213  0.23759550  0.50828559     1.93210
Cr1605     Cr  0.39931527  0.27573955  0.46600186     1.39100
O1606       O  0.38653695  0.25565304  0.48855857    -1.20820
O1607       O  0.29094716  0.35330698  0.49736148    -0.83070
O1608       O  0.24510719  0.35441454  0.52036807    -0.80120
C1609       C  0.25159165  0.36879022  0.53765363     1.00390
O1610       O  0.25296318  0.39181768  0.53381018    -0.80150
O1611       O  0.26295397  0.43489443  0.50807018    -0.82800
C1612       C  0.28624801  0.43525092  0.50498188     1.04920
O1613       O  0.29697214  0.41970273  0.49112215    -0.75560
O1614       O  0.30604782  0.37584273  0.46669840    -0.75750
C1615       C  0.30888956  0.35977308  0.48368457     1.04870
O1616       O  0.26715510  0.34964327  0.45018920    -0.83070
O1617       O  0.22210978  0.35722706  0.47258119    -0.80130
C1618       C  0.20488568  0.36729692  0.48481740     1.00410
O1619       O  0.20955903  0.38332166  0.50148581    -0.80160
O1620       O  0.22329579  0.42429061  0.47417479    -0.82770
C1621       C  0.23614518  0.43622637  0.45857931     1.04880
O1622       O  0.25917745  0.43226903  0.45595051    -0.75590
O1623       O  0.26515594  0.38652599  0.43321000    -0.75730
C1624       C  0.26485969  0.36317992  0.43120513     1.04840
Cr1625     Cr  0.25641783  0.35613952  0.48508977     1.93740
Cr1626     Cr  0.23863764  0.40709496  0.50305143     1.93210
Cr1627     Cr  0.28016225  0.40261987  0.46327084     1.39100
O1628       O  0.25835388  0.38881076  0.48367574    -1.20820
O1629       O  0.26161279  0.29116772  0.39519418    -0.83070
O1630       O  0.21685109  0.26887425  0.38641288    -0.80120
C1631       C  0.19985203  0.25647765  0.37628646     1.00390
O1632       O  0.20481210  0.23961983  0.36059654    -0.80150
O1633       O  0.21960020  0.26779297  0.32060840    -0.82800
C1634       C  0.23295100  0.28315945  0.30897891     1.04920
O1635       O  0.25624826  0.28431119  0.31241634    -0.75560
O1636       O  0.26241390  0.30738320  0.35774521    -0.75750
C1637       C  0.26146809  0.30993714  0.38104989     1.04870
O1638       O  0.28482180  0.24334915  0.39300648    -0.83070
O1639       O  0.23955893  0.22065261  0.38991534    -0.80130
C1640       C  0.24681559  0.20369762  0.37539156     1.00410
O1641       O  0.24823971  0.20769468  0.35234010    -0.80160
O1642       O  0.25900790  0.23348186  0.30961841    -0.82770
C1643       C  0.28243833  0.23503401  0.31058281     1.04880
O1644       O  0.29299707  0.24805943  0.32686854    -0.75590
O1645       O  0.30163148  0.27295155  0.37037202    -0.75730
C1646       C  0.30336023  0.25615477  0.38679392     1.04840
Cr1647     Cr  0.25082074  0.25608596  0.38877846     1.93740
Cr1648     Cr  0.23426873  0.23840751  0.33724123     1.93210
Cr1649     Cr  0.27662383  0.27671311  0.34270733     1.39100
O1650       O  0.25384057  0.25728103  0.35614426    -1.20820
O1651       O  0.52478082  0.28357918  0.32660808    -0.83070
O1652       O  0.54731745  0.23812236  0.32971563    -0.80120
C1653       C  0.56434517  0.24613488  0.34368046     1.00390
O1654       O  0.56045035  0.24819986  0.36676641    -0.80150
O1655       O  0.53409256  0.26038404  0.40981206    -0.82800
C1656       C  0.53059102  0.28370895  0.40918062     1.04920
O1657       O  0.51822904  0.29343663  0.39189918    -0.75560
O1658       O  0.49398263  0.29995103  0.34792873    -0.75750
C1659       C  0.51167711  0.30197989  0.33255190     1.04870
O1660       O  0.47697894  0.26016868  0.32391661    -0.83070
O1661       O  0.49927602  0.21553260  0.33305729    -0.80130
C1662       C  0.51150401  0.19861994  0.34357417     1.00410
O1663       O  0.52798671  0.20390543  0.35983391    -0.80160
O1664       O  0.50035797  0.21999845  0.40013093    -0.82770
C1665       C  0.48481766  0.23360402  0.41125423     1.04880
O1666       O  0.48315116  0.25655158  0.40676930    -0.75590
O1667       O  0.46043323  0.26009454  0.36119329    -0.75730
C1668       C  0.45813072  0.25892852  0.33790570     1.04840
Cr1669     Cr  0.51200066  0.24957551  0.33069838     1.93740
Cr1670     Cr  0.52961831  0.23436673  0.38266329     1.93210
Cr1671     Cr  0.49043391  0.27575685  0.37603240     1.39100
O1672       O  0.51049518  0.25309015  0.36330898    -1.20820
O1673       O  0.47932056  0.41918634  0.50547616    -0.83070
O1674       O  0.52524011  0.41492831  0.52670721    -0.80120
C1675       C  0.51805610  0.40047055  0.54372553     1.00390
O1676       O  0.51601463  0.37755623  0.53943196    -0.80150
O1677       O  0.50300855  0.33582541  0.51293473    -0.82800
C1678       C  0.47957893  0.33718853  0.51147701     1.04920
O1679       O  0.46915464  0.35418934  0.49928409    -0.75560
O1680       O  0.46163988  0.39839695  0.47511993    -0.75750
C1681       C  0.46059867  0.41437974  0.49236027     1.04870
O1682       O  0.50141831  0.42200958  0.45702588    -0.83070
O1683       O  0.54646311  0.41214643  0.47785385    -0.80130
C1684       C  0.56358779  0.40185744  0.48992529     1.00410
O1685       O  0.55881773  0.38511622  0.50592153    -0.80160
O1686       O  0.54167093  0.34534639  0.47746411    -0.82770
C1687       C  0.52731115  0.33412364  0.46257222     1.04880
O1688       O  0.50426218  0.33894121  0.46192786    -0.75590
O1689       O  0.50002715  0.38507046  0.43995349    -0.75730
C1690       C  0.50168586  0.40832590  0.43795321     1.04840
Cr1691     Cr  0.51289131  0.41466173  0.49165228     1.93740
Cr1692     Cr  0.52862113  0.36247581  0.50775325     1.93210
Cr1693     Cr  0.48552274  0.36995836  0.47052410     1.39100
O1694       O  0.50913834  0.38221866  0.48975940    -1.20820
O1695       O  0.41558385  0.02561919  0.95376166    -0.83070
O1696       O  0.41310302  0.04867812  0.99972920    -0.80120
C1697       C  0.39812080  0.06559576  0.99375587     1.00390
O1698       O  0.37512962  0.06096235  0.99229283    -0.80150
O1699       O  0.33353436  0.03401603  0.97859844    -0.82800
C1700       C  0.33470183  0.03095282  0.95520138     1.04920
O1701       O  0.35129919  0.01766753  0.94540751    -0.75560
O1702       O  0.39542752  0.99341515  0.93902910    -0.75750
C1703       C  0.41026860  0.01133156  0.93594395     1.04870
O1704       O  0.41956360  0.97866478  0.97847612    -0.83070
O1705       O  0.41126100  0.00116263  0.02287771    -0.80130
C1706       C  0.39990981  0.01218527  0.04010539     1.00410
O1707       O  0.38243415  0.02742136  0.03538660    -0.80160
O1708       O  0.34233614  0.99920602  0.01870313    -0.82770
C1709       C  0.33126713  0.98384713  0.00474146     1.04880
O1710       O  0.33626200  0.98262282  0.98185793    -0.75590
O1711       O  0.38278846  0.96122138  0.98028322    -0.75730
C1712       C  0.40612572  0.95979058  0.98185797     1.04840
Cr1713     Cr  0.41236528  0.01346151  0.98849722     1.93740
Cr1714     Cr  0.35989240  0.02919219  0.00496014     1.93210
Cr1715     Cr  0.36737731  0.99027503  0.96340195     1.39100
O1716       O  0.37970843  0.01097675  0.98577487    -1.20820
O1717       O  0.41961165  0.26155989  0.26814097    -0.83070
O1718       O  0.41123639  0.21744464  0.24459271    -0.80120
C1719       C  0.40028658  0.20063473  0.23256876     1.00390
O1720       O  0.38400042  0.20594216  0.21622919    -0.80150
O1721       O  0.34361264  0.22081937  0.24392969    -0.82800
C1722       C  0.33220595  0.23389308  0.25969408     1.04920
O1723       O  0.33674119  0.25671765  0.26222200    -0.75560
O1724       O  0.38254762  0.25990609  0.28501789    -0.75750
C1725       C  0.40588334  0.25934246  0.28707054     1.04870
O1726       O  0.41634708  0.28677860  0.22135950    -0.83070
O1727       O  0.41430606  0.24145840  0.19727124    -0.80130
C1728       C  0.39983214  0.24816454  0.18010290     1.00410
O1729       O  0.37681234  0.25004923  0.18423943    -0.80160
O1730       O  0.33413656  0.26177223  0.21082156    -0.82770
C1731       C  0.33465123  0.28495381  0.21487058     1.04880
O1732       O  0.35123256  0.29455127  0.22824779    -0.75590
O1733       O  0.39480307  0.30116167  0.25299690    -0.75730
C1734       C  0.41007691  0.30445753  0.23543182     1.04840
Cr1735     Cr  0.41293712  0.25196949  0.23287655     1.93740
Cr1736     Cr  0.36115184  0.23598720  0.21506034     1.93210
Cr1737     Cr  0.36726564  0.27633968  0.25554188     1.39100
O1738       O  0.38028735  0.25463965  0.23458116    -1.20820
O1739       O  0.47900670  0.34520864  0.24198079    -0.83070
O1740       O  0.49945518  0.35447448  0.19661892    -0.80120
C1741       C  0.51153552  0.36457003  0.17933279     1.00390
O1742       O  0.52703085  0.38191399  0.18377473    -0.80150
O1743       O  0.49873148  0.42226433  0.19953681    -0.82800
C1744       C  0.48273619  0.43304495  0.21302179     1.04920
O1745       O  0.48086337  0.42818455  0.23598057    -0.75560
O1746       O  0.46063929  0.38131995  0.23970017    -0.75750
C1747       C  0.45970247  0.35797242  0.23881566     1.04870
O1748       O  0.52669264  0.35048915  0.26411237    -0.83070
O1749       O  0.54777521  0.35289537  0.21757570    -0.80130
C1750       C  0.56474182  0.36728845  0.22461323     1.00410
O1751       O  0.56029453  0.39017819  0.22691618    -0.80160
O1752       O  0.53332336  0.43219067  0.23935453    -0.82770
C1753       C  0.53017995  0.43169467  0.26275696     1.04880
O1754       O  0.51687947  0.41533736  0.27293982    -0.75590
O1755       O  0.49475518  0.37030145  0.28025467    -0.75730
C1756       C  0.51288985  0.35543801  0.28235781     1.04840
Cr1757     Cr  0.51308415  0.35320964  0.23028311     1.93740
Cr1758     Cr  0.52866009  0.40520600  0.21367600     1.93210
Cr1759     Cr  0.48975650  0.39793084  0.25554620     1.39100
O1760       O  0.51039983  0.38571716  0.23307962    -1.20820
O1761       O  0.42058967  0.51086086  0.45791966    -0.83070
O1762       O  0.41185186  0.55544213  0.47964974    -0.80120
C1763       C  0.40095665  0.57259910  0.49114453     1.00390
O1764       O  0.38365080  0.56785511  0.50674689    -0.80150
O1765       O  0.34269882  0.55129173  0.47877892    -0.82800
C1766       C  0.33181264  0.53751731  0.46298010     1.04920
O1767       O  0.33731281  0.51478683  0.46120090    -0.75560
O1768       O  0.38393452  0.51259787  0.44022871    -0.75750
C1769       C  0.40726296  0.51363889  0.43883941     1.04870
O1770       O  0.41640549  0.48739836  0.50546732    -0.83070
O1771       O  0.41389699  0.53340020  0.52762658    -0.80130
C1772       C  0.39975395  0.52535569  0.54441923     1.00410
O1773       O  0.37665780  0.52382335  0.54013713    -0.80160
O1774       O  0.33434126  0.51107023  0.51324439    -0.82770
C1775       C  0.33542330  0.48781304  0.50965369     1.04880
O1776       O  0.35236813  0.47828435  0.49673020    -0.75590
O1777       O  0.39655570  0.47189533  0.47331971    -0.75730
C1778       C  0.41122491  0.46933289  0.49156115     1.04840
Cr1779     Cr  0.41323342  0.52154694  0.49254265     1.93740
Cr1780     Cr  0.36085928  0.53737712  0.50863352     1.93210
Cr1781     Cr  0.36841725  0.49615910  0.46937947     1.39100
O1782       O  0.38059325  0.51861763  0.48999971    -1.20820
O1783       O  0.50125195  0.47894592  0.39933379    -0.83070
O1784       O  0.54638718  0.50112145  0.39128740    -0.80120
C1785       C  0.56366493  0.51284051  0.38066662     1.00390
O1786       O  0.55903674  0.52845384  0.36351255    -0.80150
O1787       O  0.54360262  0.49982733  0.32340891    -0.82800
C1788       C  0.52992928  0.48446979  0.31204925     1.04920
O1789       O  0.50686319  0.48324409  0.31621818    -0.75560
O1790       O  0.50201023  0.46151003  0.36245992    -0.75750
C1791       C  0.50247940  0.45978027  0.38585646     1.04870
O1792       O  0.47779631  0.52658127  0.39477508    -0.83070
O1793       O  0.52360975  0.54898551  0.39276979    -0.80130
C1794       C  0.51746434  0.56590626  0.37776759     1.00410
O1795       O  0.51603816  0.56132348  0.35477108    -0.80160
O1796       O  0.50424783  0.53432763  0.31255310    -0.82770
C1797       C  0.48084037  0.53172774  0.31305778     1.04880
O1798       O  0.47039316  0.51918194  0.32980900    -0.75590
O1799       O  0.46216092  0.49537119  0.37368851    -0.75730
C1800       C  0.45954594  0.51333823  0.38851168     1.04840
Cr1801     Cr  0.51211374  0.51374961  0.39209991     1.93740
Cr1802     Cr  0.52938114  0.52976513  0.34007665     1.93210
Cr1803     Cr  0.48716531  0.49134936  0.34647339     1.39100
O1804       O  0.50974608  0.51143642  0.35941842    -1.20820
O1805       O  0.28563750  0.41746449  0.21911871    -0.83070
O1806       O  0.23977089  0.41539348  0.19557447    -0.80120
C1807       C  0.24675941  0.40059167  0.17894031     1.00390
O1808       O  0.24875332  0.37778004  0.18375916    -0.80150
O1809       O  0.26004323  0.33613649  0.21154864    -0.82800
C1810       C  0.28313826  0.33634451  0.21622332     1.04920
O1811       O  0.29268057  0.35252125  0.23019238    -0.75560
O1812       O  0.29939311  0.39757786  0.25215571    -0.75750
C1813       C  0.30308933  0.41180645  0.23378057     1.04870
O1814       O  0.26071893  0.42360899  0.26540157    -0.83070
O1815       O  0.21632755  0.41442332  0.24274005    -0.80130
C1816       C  0.19939633  0.40323782  0.23108752     1.00410
O1817       O  0.20444986  0.38619779  0.21548414    -0.80160
O1818       O  0.21874693  0.34622365  0.24406801    -0.82770
C1819       C  0.23144471  0.33555852  0.26066444     1.04880
O1820       O  0.25402588  0.34078118  0.26411807    -0.75590
O1821       O  0.25692659  0.38782663  0.28419077    -0.75730
C1822       C  0.25651731  0.41121778  0.28479173     1.04840
Cr1823     Cr  0.25077943  0.41525459  0.23083309     1.93740
Cr1824     Cr  0.23433220  0.36313428  0.21497194     1.93210
Cr1825     Cr  0.27409177  0.37057103  0.25607884     1.39100
O1826       O  0.25298544  0.38271950  0.23400775    -1.20820
O1827       O  0.97398633  0.41990947  0.97656806    -0.83070
O1828       O  0.99758777  0.41331246  0.02128084    -0.80120
C1829       C  0.00910214  0.40248388  0.03860540     1.00390
O1830       O  0.02463706  0.38529351  0.03389180    -0.80150
O1831       O  0.99680560  0.34479096  0.01877849    -0.82800
C1832       C  0.98176984  0.33280354  0.00536198     1.04920
O1833       O  0.97991088  0.33706209  0.98232728    -0.75560
O1834       O  0.95710598  0.38282550  0.97811080    -0.75750
C1835       C  0.95505937  0.40612462  0.97844671     1.04870
O1836       O  0.02102927  0.41606990  0.95149167    -0.83070
O1837       O  0.04487419  0.41499526  0.99693326    -0.80130
C1838       C  0.06189554  0.39983602  0.99152983     1.00410
O1839       O  0.05739442  0.37691605  0.99059457    -0.80160
O1840       O  0.03116610  0.33484463  0.97855593    -0.82770
C1841       C  0.02840678  0.33564884  0.95511565     1.04880
O1842       O  0.01472839  0.35167154  0.94503208    -0.75590
O1843       O  0.98947231  0.39463112  0.93711707    -0.75730
C1844       C  0.00719338  0.40960806  0.93368502     1.04840
Cr1845     Cr  0.00926331  0.41359846  0.98644863     1.93740
Cr1846     Cr  0.02615763  0.36199068  0.00408106     1.93210
Cr1847     Cr  0.98685981  0.36751111  0.96247078     1.39100
O1848       O  0.00727803  0.38093285  0.98456834    -1.20820
O1849       O  0.34934284  0.52766603  0.26512057    -0.83070
O1850       O  0.35082142  0.55017150  0.21890456    -0.80120
C1851       C  0.36616217  0.56683898  0.22459784     1.00390
O1852       O  0.38908329  0.56186932  0.22562063    -0.80150
O1853       O  0.43058588  0.53431231  0.23808592    -0.82800
C1854       C  0.43009198  0.53123469  0.26150442     1.04920
O1855       O  0.41359874  0.51819752  0.27181253    -0.75560
O1856       O  0.36915841  0.49512744  0.27962494    -0.75750
C1857       C  0.35494670  0.51349667  0.28294768     1.04870
O1858       O  0.34349465  0.48061919  0.24113528    -0.83070
O1859       O  0.35098149  0.50263111  0.19617506    -0.80130
C1860       C  0.36197696  0.51351159  0.17858473     1.00410
O1861       O  0.37988289  0.52843323  0.18276296    -0.80160
O1862       O  0.42010107  0.49970030  0.19837712    -0.82770
C1863       C  0.43130399  0.48415868  0.21203838     1.04880
O1864       O  0.42670262  0.48273319  0.23500924    -0.75590
O1865       O  0.37977518  0.46236427  0.23823887    -0.75730
C1866       C  0.35637471  0.46144583  0.23744531     1.04840
Cr1867     Cr  0.35115831  0.51512568  0.23049120     1.93740
Cr1868     Cr  0.40338193  0.52989206  0.21253827     1.93210
Cr1869     Cr  0.39636287  0.49113807  0.25443005     1.39100
O1870       O  0.38381884  0.51199737  0.23229839    -1.20820
O1871       O  0.23885268  0.48330584  0.32751461    -0.83070
O1872       O  0.21581492  0.52931816  0.32791271    -0.80120
C1873       C  0.19879193  0.52287291  0.34257113     1.00390
O1874       O  0.20305577  0.52223234  0.36573449    -0.80150
O1875       O  0.22945471  0.51014456  0.40836960    -0.82800
C1876       C  0.23321119  0.48689630  0.40806772     1.04920
O1877       O  0.24711148  0.47696888  0.39207573    -0.75560
O1878       O  0.27116736  0.46940324  0.34819758    -0.75750
C1879       C  0.25312854  0.46573173  0.33358055     1.04870
O1880       O  0.28581466  0.50776909  0.32265639    -0.83070
O1881       O  0.26315610  0.55238666  0.32945794    -0.80130
C1882       C  0.25205416  0.56987176  0.34032065     1.00410
O1883       O  0.23670392  0.56563061  0.35793769    -0.80160
O1884       O  0.26416932  0.55024714  0.39958333    -0.82770
C1885       C  0.27996892  0.53689947  0.41096670     1.04880
O1886       O  0.28202155  0.51411751  0.40601970    -0.75590
O1887       O  0.30333515  0.51113984  0.35929936    -0.75730
C1888       C  0.30476131  0.51158885  0.33588065     1.04840
Cr1889     Cr  0.25099542  0.51804931  0.32946687     1.93740
Cr1890     Cr  0.23456811  0.53580091  0.38137647     1.93210
Cr1891     Cr  0.27432469  0.49469380  0.37540525     1.39100
O1892       O  0.25338577  0.51643127  0.36230677    -1.20820
O1893       O  0.85158281  0.52766973  0.75582343    -0.83070
O1894       O  0.85507984  0.54799941  0.70890934    -0.80120
C1895       C  0.86902965  0.56491428  0.71685058     1.00390
O1896       O  0.89195447  0.56086689  0.71941498    -0.80150
O1897       O  0.93434876  0.53431231  0.73149083    -0.82800
C1898       C  0.93397802  0.53104196  0.75486102     1.04920
O1899       O  0.91722667  0.51831606  0.76510380    -0.75560
O1900       O  0.87200960  0.49653469  0.77279060    -0.75750
C1901       C  0.85670895  0.51439446  0.77442529     1.04870
O1902       O  0.84690508  0.47977543  0.73439879    -0.83070
O1903       O  0.85724209  0.49944138  0.68885678    -0.80130
C1904       C  0.86729979  0.51146390  0.67151390     1.00410
O1905       O  0.88393764  0.52771617  0.67598352    -0.80160
O1906       O  0.92419675  0.50020386  0.69188141    -0.82770
C1907       C  0.93509560  0.48445874  0.70542414     1.04880
O1908       O  0.92998148  0.48214183  0.72832106    -0.75590
O1909       O  0.88317095  0.46156102  0.73295267    -0.75730
C1910       C  0.85977196  0.46041332  0.73227693     1.04840
Cr1911     Cr  0.85508033  0.51362397  0.72219519     1.93740
Cr1912     Cr  0.90712526  0.52966603  0.70599211     1.93210
Cr1913     Cr  0.89977863  0.49105536  0.74811554     1.39100
O1914       O  0.88760791  0.51129935  0.72539545    -1.20820
O1915       O  0.48347704  0.84883994  0.72079743    -0.83070
O1916       O  0.52923771  0.85087605  0.69762004    -0.80120
C1917       C  0.52404472  0.86591097  0.68036602     1.00390
O1918       O  0.52270833  0.88887242  0.68473481    -0.80150
O1919       O  0.51045884  0.93116761  0.71109919    -0.82800
C1920       C  0.48700698  0.93074086  0.71343417     1.04920
O1921       O  0.47639012  0.91435246  0.72638032    -0.75560
O1922       O  0.46807716  0.87077697  0.75158623    -0.75750
C1923       C  0.46544327  0.85487076  0.73453086     1.04870
O1924       O  0.50759467  0.84569893  0.76823385    -0.83070
O1925       O  0.55236679  0.85319213  0.74562088    -0.80130
C1926       C  0.56970242  0.86358849  0.73383713     1.00410
O1927       O  0.56518901  0.88050778  0.71798759    -0.80160
O1928       O  0.54966258  0.92069664  0.74613440    -0.82770
C1929       C  0.53589119  0.93247438  0.76105433     1.04880
O1930       O  0.51279203  0.92850296  0.76209491    -0.75590
O1931       O  0.50817452  0.88283476  0.78493882    -0.75730
C1932       C  0.50904121  0.85954396  0.78713222     1.04840
Cr1933     Cr  0.51803867  0.85216437  0.73310871     1.93740
Cr1934     Cr  0.53558332  0.90381049  0.71628561     1.93210
Cr1935     Cr  0.49313073  0.89814312  0.75469910     1.39100
O1936       O  0.51567695  0.88480658  0.73475783    -1.20820
O1937       O  0.29306276  0.92079877  0.73518044    -0.83070
O1938       O  0.27206581  0.91289830  0.68993546    -0.80120
C1939       C  0.26096806  0.90241006  0.67224492     1.00390
O1940       O  0.24615821  0.88432001  0.67624174    -0.80150
O1941       O  0.27466563  0.84385950  0.69248894    -0.82800
C1942       C  0.28999437  0.83273314  0.70647724     1.04920
O1943       O  0.29132045  0.83768312  0.72936854    -0.75560
O1944       O  0.31155002  0.88468613  0.73279960    -0.75750
C1945       C  0.31239908  0.90806483  0.73191490     1.04870
O1946       O  0.24566302  0.91511066  0.75829861    -0.83070
O1947       O  0.22393706  0.91316281  0.71170111    -0.80130
C1948       C  0.20711674  0.89795796  0.71734535     1.00410
O1949       O  0.21203025  0.87508129  0.71869359    -0.80160
O1950       O  0.23934832  0.83348668  0.73177034    -0.82770
C1951       C  0.24222833  0.83373330  0.75525496     1.04880
O1952       O  0.25519570  0.85021022  0.76572312    -0.75590
O1953       O  0.27786889  0.89521617  0.77356365    -0.75730
C1954       C  0.25985165  0.91004688  0.77627337     1.04840
Cr1955     Cr  0.25880727  0.91291267  0.72394824     1.93740
Cr1956     Cr  0.24425309  0.86071853  0.70612735     1.93210
Cr1957     Cr  0.28244609  0.86789277  0.74860389     1.39100
O1958       O  0.26186772  0.88029233  0.72609717    -1.20820
O1959       O  0.92489284  0.26412135  0.75560245    -0.83070
O1960       O  0.91557945  0.21869184  0.73519682    -0.80120
C1961       C  0.90573289  0.20134882  0.72308827     1.00390
O1962       O  0.88796755  0.20579605  0.70795092    -0.80150
O1963       O  0.84794691  0.22276723  0.73762586    -0.82800
C1964       C  0.83677749  0.23720190  0.75259883     1.04920
O1965       O  0.84164278  0.26022555  0.75300848    -0.75560
O1966       O  0.88815534  0.26530793  0.77336029    -0.75750
C1967       C  0.91144984  0.26398971  0.77491978     1.04870
O1968       O  0.92057324  0.28559799  0.70681288    -0.83070
O1969       O  0.91639019  0.23969595  0.68621244    -0.80130
C1970       C  0.90156358  0.24723960  0.66968683     1.00410
O1971       O  0.87862708  0.24878710  0.67455162    -0.80160
O1972       O  0.83675505  0.26116674  0.70251273    -0.82770
C1973       C  0.83745719  0.28462223  0.70449974     1.04880
O1974       O  0.85551151  0.29515494  0.71488629    -0.75590
O1975       O  0.90033345  0.30345220  0.73743222    -0.75730
C1976       C  0.91564197  0.30449281  0.71952651     1.04840
Cr1977     Cr  0.91694108  0.25224068  0.72119089     1.93740
Cr1978     Cr  0.86437182  0.23582324  0.70669162     1.93210
Cr1979     Cr  0.87226930  0.27926000  0.74321440     1.39100
O1980       O  0.88438441  0.25556279  0.72400866    -1.20820
O1981       O  0.09974675  0.23635334  0.72252566    -0.83070
O1982       O  0.10816022  0.25596634  0.76859829    -0.80120
C1983       C  0.11819786  0.26718380  0.78646117     1.00390
O1984       O  0.13529335  0.28307812  0.78255507    -0.80150
O1985       O  0.17481401  0.25433127  0.76482476    -0.82800
C1986       C  0.18621286  0.24011281  0.74991470     1.04920
O1987       O  0.18273158  0.24157431  0.72663013    -0.75560
O1988       O  0.13702740  0.21982261  0.72014579    -0.75750
C1989       C  0.11376945  0.21748294  0.72160650     1.04870
O1990       O  0.10284921  0.28582276  0.70209865    -0.83070
O1991       O  0.10676255  0.30545938  0.74847556    -0.80130
C1992       C  0.12170010  0.32222264  0.74159795     1.00410
O1993       O  0.14469486  0.31777054  0.74078425    -0.80160
O1994       O  0.18638275  0.29130316  0.72790464    -0.82770
C1995       C  0.18502273  0.29155775  0.70437187     1.04880
O1996       O  0.16760383  0.28073514  0.69324209    -0.75590
O1997       O  0.12410530  0.25654787  0.68340249    -0.75730
C1998       C  0.10827467  0.27388523  0.68280379     1.04840
Cr1999     Cr  0.10670175  0.27074834  0.73525177     1.93740
Cr2000     Cr  0.15882637  0.28556883  0.75277813     1.93210
Cr2001     Cr  0.15204590  0.25103044  0.70764993     1.39100
O2002       O  0.13925038  0.26879087  0.73209400    -1.20820
O2003       O  0.02334808  0.16663147  0.76182231    -0.83070
O2004       O  0.04533656  0.17550022  0.71674468    -0.80120
C2005       C  0.06491997  0.16280692  0.71845181     1.00390
O2006       O  0.06404101  0.13940236  0.71786869    -0.80150
O2007       O  0.04375421  0.09221847  0.72245382    -0.82800
C2008       C  0.04114182  0.08679093  0.74519816     1.04920
O2009       O  0.02543548  0.09797378  0.75870590    -0.75560
O2010       O  0.99657401  0.13823938  0.77419291    -0.75750
C2011       C  0.01153671  0.15589961  0.77896943     1.04870
O2012       O  0.97553740  0.16750281  0.73886733    -0.83070
O2013       O  0.99835948  0.16989802  0.69304749    -0.80130
C2014       C  0.01255949  0.16484501  0.67510476     1.00410
O2015       O  0.03018589  0.14949868  0.67751501    -0.80160
O2016       O  0.00788978  0.10410588  0.68533564    -0.82770
C2017       C  0.99495204  0.08759736  0.69583652     1.04880
O2018       O  0.99141209  0.08775208  0.71912955    -0.75590
O2019       O  0.96374962  0.12952838  0.73111552    -0.75730
C2020       C  0.95870302  0.15233552  0.73305478     1.04840
Cr2021     Cr  0.01085050  0.16723804  0.72745073     1.93740
Cr2022     Cr  0.03483118  0.12224051  0.70259181     1.93210
Cr2023     Cr  0.99560477  0.11500952  0.74436942     1.39100
O2024       O  0.01391311  0.13462227  0.72492730    -1.20820
O2025       O  0.25740315  0.09691173  0.70294956    -0.83070
O2026       O  0.30182023  0.10658996  0.72474160    -0.80120
C2027       C  0.31883735  0.11725113  0.73663581     1.00390
O2028       O  0.31382143  0.13450107  0.75217300    -0.80150
O2029       O  0.29757713  0.17479608  0.72374572    -0.82800
C2030       C  0.28391173  0.18554366  0.70787893     1.04920
O2031       O  0.26125682  0.17998276  0.70548300    -0.75560
O2032       O  0.25926178  0.13324198  0.68485483    -0.75750
C2033       C  0.26065921  0.10991914  0.68373919     1.04870
O2034       O  0.23366408  0.10176812  0.75022214    -0.83070
O2035       O  0.27950011  0.10490581  0.77274294    -0.80130
C2036       C  0.27169579  0.11925315  0.78945919     1.00410
O2037       O  0.26952329  0.14214305  0.78485023    -0.80160
O2038       O  0.25693923  0.18410608  0.75721206    -0.82770
C2039       C  0.23368857  0.18373471  0.75297099     1.04880
O2040       O  0.22397760  0.16658370  0.74034952    -0.75590
O2041       O  0.21822739  0.12134025  0.71779768    -0.75730
C2042       C  0.21584423  0.10634379  0.73577152     1.04840
Cr2043     Cr  0.26784202  0.10501638  0.73755278     1.93740
Cr2044     Cr  0.28325808  0.15735413  0.75338878     1.93210
Cr2045     Cr  0.24236266  0.14939394  0.71366502     1.39100
O2046       O  0.26459962  0.13752016  0.73476925    -1.20820
O2047       O  0.17311082  0.03329986  0.74359510    -0.83070
O2048       O  0.16950125  0.98794053  0.76585073    -0.80120
C2049       C  0.15496438  0.99579442  0.78250265     1.00390
O2050       O  0.13210309  0.99803890  0.77793192    -0.80150
O2051       O  0.09006037  0.01028815  0.75071605    -0.82800
C2052       C  0.09116065  0.03366872  0.74759687     1.04920
O2053       O  0.10845888  0.04321741  0.73515859    -0.75560
O2054       O  0.15278129  0.04985302  0.71221975    -0.75750
C2055       C  0.16732175  0.05182644  0.73061733     1.04870
O2056       O  0.17730791  0.01027829  0.69563513    -0.83070
O2057       O  0.16769620  0.96546770  0.71766424    -0.80130
C2058       C  0.15728895  0.94859154  0.73006279     1.00410
O2059       O  0.14035077  0.95383398  0.74589589    -0.80160
O2060       O  0.10075494  0.96968569  0.71720131    -0.82770
C2061       C  0.08986893  0.98313521  0.70138557     1.04880
O2062       O  0.09438555  0.00611185  0.69956698    -0.75590
O2063       O  0.14053092  0.01010865  0.67810744    -0.75730
C2064       C  0.16384381  0.00937475  0.67638328     1.04840
Cr2065     Cr  0.16958166  0.99945536  0.73049098     1.93740
Cr2066     Cr  0.11728322  0.98418651  0.74679240     1.93210
Cr2067     Cr  0.12487466  0.02555854  0.70773085     1.39100
O2068       O  0.13707970  0.00289544  0.72810468    -1.20820
O2069       O  0.35027980  0.00465818  0.76028825    -0.83070
O2070       O  0.35739506  0.04879805  0.73700187    -0.80120
C2071       C  0.36861003  0.06616158  0.72604303     1.00390
O2072       O  0.38651438  0.06172789  0.71109507    -0.80150
O2073       O  0.42706890  0.04649048  0.73970504    -0.82800
C2074       C  0.43812783  0.03326663  0.75577715     1.04920
O2075       O  0.43347692  0.01043942  0.75765317    -0.75560
O2076       O  0.38660768  0.00854304  0.77824569    -0.75750
C2077       C  0.36322559  0.00933323  0.77924763     1.04870
O2078       O  0.35585975  0.97935401  0.71376383    -0.83070
O2079       O  0.35670962  0.02496200  0.68987109    -0.80130
C2080       C  0.37188405  0.01927582  0.67300430     1.00410
O2081       O  0.39491156  0.01836494  0.67785520    -0.80160
O2082       O  0.43683082  0.00580849  0.70573466    -0.82770
C2083       C  0.43646004  0.98260104  0.71003586     1.04880
O2084       O  0.41986774  0.97289385  0.72339544    -0.75590
O2085       O  0.37559667  0.96609481  0.74694781    -0.75730
C2086       C  0.36149890  0.96206985  0.72858542     1.04840
Cr2087     Cr  0.35760961  0.01428284  0.72533640     1.93740
Cr2088     Cr  0.40982626  0.03179375  0.70977220     1.93210
Cr2089     Cr  0.40290194  0.99121844  0.74994094     1.39100
O2090       O  0.39031820  0.01261720  0.72831565    -1.20820
O2091       O  0.98660461  0.35193941  0.70310251    -0.83070
O2092       O  0.03280799  0.35698178  0.68147866    -0.80120
C2093       C  0.02461447  0.37199131  0.66551153     1.00390
O2094       O  0.02330937  0.39476600  0.67077413    -0.80150
O2095       O  0.00984448  0.43508612  0.69925276    -0.82800
C2096       C  0.98641195  0.43344195  0.70167421     1.04920
O2097       O  0.97663263  0.41577099  0.71344404    -0.75560
O2098       O  0.97036901  0.37061196  0.73558013    -0.75750
C2099       C  0.96836124  0.35612844  0.71717751     1.04870
O2100       O  0.00978818  0.34644342  0.75092018    -0.83070
O2101       O  0.05422400  0.35691921  0.72998655    -0.80130
C2102       C  0.07154978  0.36876164  0.71978060     1.00410
O2103       O  0.06699869  0.38615936  0.70430285    -0.80160
O2104       O  0.04952969  0.42461090  0.73393239    -0.82770
C2105       C  0.03524118  0.43471846  0.74967294     1.04880
O2106       O  0.01230290  0.42971903  0.75018471    -0.75590
O2107       O  0.01013862  0.38256052  0.76969821    -0.75730
C2108       C  0.01181546  0.35925497  0.77048804     1.04840
Cr2109     Cr  0.02061881  0.35542931  0.71649397     1.93740
Cr2110     Cr  0.03627664  0.40858116  0.70302307     1.93210
Cr2111     Cr  0.99408735  0.39889907  0.74072727     1.39100
O2112       O  0.01716302  0.38780915  0.72022478    -1.20820
C2113       C  0.17956375  0.07472408  0.73527846    -0.11000
C2114       C  0.19415453  0.09139085  0.73722802    -0.12550
C2115       C  0.34343607  0.10688758  0.73374896    -0.11000
C2116       C  0.35872068  0.09085671  0.72962479    -0.12550
C2117       C  0.07131664  0.05000208  0.75534380    -0.11000
C2118       C  0.05625758  0.06673374  0.75468250    -0.12550
C2119       C  0.21821967  0.20460171  0.75958084    -0.11000
C2120       C  0.20376918  0.22181410  0.75861878    -0.12550
C2121       C  0.10243416  0.19331133  0.72114436    -0.11000
C2122       C  0.08792984  0.17622257  0.72020491    -0.12550
C2123       C  0.09629293  0.36018709  0.72538378    -0.11000
C2124       C  0.11150623  0.34554576  0.73316489    -0.12550
C2125       C  0.93007900  0.32637738  0.71549530    -0.11000
C2126       C  0.94619359  0.34180183  0.71445998    -0.12550
C2127       C  0.91756538  0.17727140  0.72502047    -0.11000
C2128       C  0.93405836  0.16223885  0.72845659    -0.12550
C2129       C  0.34939270  0.93848250  0.72666544    -0.11000
C2130       C  0.33507118  0.92137259  0.72810778    -0.12550
C2131       C  0.18281718  0.90805155  0.72286107    -0.11000
C2132       C  0.16739096  0.92386543  0.72733984    -0.12550
C2133       C  0.45663733  0.96686226  0.70259529    -0.11000
C2134       C  0.47207885  0.95068304  0.70390492    -0.12550
C2135       C  0.95432950  0.46889152  0.69553094    -0.11000
C2136       C  0.97039679  0.45335641  0.69423577    -0.12550
C2137       C  0.34256378  0.51614469  0.30636308    -0.11000
C2138       C  0.32776770  0.51524414  0.32313328    -0.12550
C2139       C  0.32650226  0.42416509  0.23175389    -0.11000
C2140       C  0.34330253  0.43878741  0.23331698    -0.12550
C2141       C  0.25233929  0.42489442  0.30723551    -0.11000
C2142       C  0.25098219  0.44213646  0.32144181    -0.12550
C2143       C  0.45002864  0.53997967  0.27683455    -0.11000
C2144       C  0.46573064  0.54016590  0.29281025    -0.12550
C2145       C  0.41972564  0.51652561  0.41567431    -0.11000
C2146       C  0.43627457  0.51667096  0.40071512    -0.12550
C2147       C  0.31231589  0.54656721  0.44645482    -0.11000
C2148       C  0.29627963  0.54646019  0.43038479    -0.12550
C2149       C  0.53955201  0.46789051  0.29349259    -0.11000
C2150       C  0.53925359  0.45152556  0.27815950    -0.12550
C2151       C  0.46624048  0.45180506  0.20316230    -0.11000
C2152       C  0.45027940  0.46768595  0.20261865    -0.12550
C2153       C  0.42254494  0.32782193  0.23356769    -0.11000
C2154       C  0.43700299  0.34478233  0.23504244    -0.12550
C2155       C  0.31462356  0.30069440  0.20708686    -0.11000
C2156       C  0.29885424  0.31658067  0.20771675    -0.12550
C2157       C  0.50285610  0.42030137  0.41408477    -0.11000
C2158       C  0.50318268  0.43610140  0.39814380    -0.12550
C2159       C  0.43913501  0.42975952  0.49486451    -0.11000
C2160       C  0.42442007  0.44653850  0.49463162    -0.12550
C2161       C  0.53751111  0.29947042  0.42977186    -0.11000
C2162       C  0.53637349  0.31507584  0.44597043    -0.12550
C2163       C  0.51506809  0.32469915  0.31949050    -0.11000
C2164       C  0.51550649  0.34110340  0.30442791    -0.12550
C2165       C  0.43410835  0.25748021  0.32635666    -0.11000
C2166       C  0.41790292  0.25754990  0.31083935    -0.12550
C2167       C  0.22232911  0.29973001  0.29102193    -0.11000
C2168       C  0.22139104  0.31618455  0.27586699    -0.12550
C2169       C  0.29751131  0.22466576  0.29126144    -0.11000
C2170       C  0.31313744  0.22386405  0.27525381    -0.12550
C2171       C  0.26152762  0.33417444  0.39243891    -0.11000
C2172       C  0.26264962  0.35078044  0.40755848    -0.12550
C2173       C  0.31562064  0.47170703  0.51706904    -0.11000
C2174       C  0.30073150  0.45512845  0.51514747    -0.12550
C2175       C  0.22538435  0.45529665  0.44343502    -0.11000
C2176       C  0.22443117  0.47131618  0.42781402    -0.12550
C2177       C  0.34164109  0.25268144  0.41651679    -0.11000
C2178       C  0.32580933  0.25337394  0.40073454    -0.12550
C2179       C  0.33182026  0.34630691  0.48529724    -0.11000
C2180       C  0.34767373  0.33052002  0.48466443    -0.12550
C2181       C  0.44996447  0.30034355  0.51972504    -0.11000
C2182       C  0.46449355  0.31726338  0.52035261    -0.12550
C2183       C  0.45201458  0.22494836  0.44496110    -0.11000
C2184       C  0.46846621  0.22400608  0.42984007    -0.12550
C2185       C  0.26512242  0.09713851  0.66081588    -0.11000
C2186       C  0.26738821  0.08109996  0.64536918    -0.12550
C2187       C  0.34624090  0.00735122  0.63299350    -0.11000
C2188       C  0.36153666  0.01308898  0.64873478    -0.12550
C2189       C  0.26380096  0.91367222  0.64797003    -0.11000
C2190       C  0.26709307  0.92987151  0.63261653    -0.12550
C2191       C  0.17591449  0.00911561  0.65257865    -0.11000
C2192       C  0.19158685  0.01045069  0.63659053    -0.12550
C2193       C  0.29783261  0.05421813  0.53574708    -0.11000
C2194       C  0.29677260  0.06957480  0.51943622    -0.12550
C2195       C  0.25476755  0.18050764  0.38599487    -0.11000
C2196       C  0.26298445  0.16527004  0.40029069    -0.12550
C2197       C  0.34371724  0.16391453  0.48099677    -0.11000
C2198       C  0.35947442  0.17822927  0.48782261    -0.12550
C2199       C  0.19268081  0.17864283  0.47402661    -0.11000
C2200       C  0.17637440  0.19388605  0.47444166    -0.12550
C2201       C  0.17515536  0.26043688  0.38516007    -0.11000
C2202       C  0.15938372  0.26599351  0.39998684    -0.12550
C2203       C  0.16371871  0.34324464  0.47781698    -0.11000
C2204       C  0.18019478  0.35799146  0.48121104    -0.12550
C2205       C  0.07768216  0.27846299  0.64548595    -0.11000
C2206       C  0.09383545  0.27794720  0.66090581    -0.12550
C2207       C  0.91201880  0.25539769  0.64621784    -0.11000
C2208       C  0.92742959  0.26261315  0.63135298    -0.12550
C2209       C  0.00552915  0.34732647  0.62811548    -0.11000
C2210       C  0.01485660  0.36193611  0.64254010    -0.12550
C2211       C  0.01201440  0.19615349  0.63823333    -0.11000
C2212       C  0.01102595  0.17946089  0.65301879    -0.12550
C2213       C  0.04969117  0.29988548  0.53472066    -0.11000
C2214       C  0.06567421  0.29776496  0.51922813    -0.12550
C2215       C  0.05051413  0.20481975  0.44758218    -0.11000
C2216       C  0.06621930  0.22077702  0.44839591    -0.12550
C2217       C  0.98066871  0.22249397  0.53609824    -0.11000
C2218       C  0.98103645  0.20501123  0.52190336    -0.12550
C2219       C  0.01243967  0.09060364  0.38249472    -0.11000
C2220       C  0.00860270  0.10697104  0.39744242    -0.12550
C2221       C  0.20518615  0.05436991  0.44501422    -0.11000
C2222       C  0.22084425  0.07026518  0.44630987    -0.12550
C2223       C  0.22658182  0.97965555  0.53189793    -0.11000
C2224       C  0.21054465  0.97956956  0.51585482    -0.12550
C2225       C  0.09603071  0.07984022  0.47522419    -0.11000
C2226       C  0.08088994  0.09625594  0.47712925    -0.12550
C2227       C  0.09284075  0.01258058  0.38154541    -0.11000
C2228       C  0.10878377  0.00673385  0.39657609    -0.12550
C2229       C  0.07128366  0.97316241  0.68523322    -0.11000
C2230       C  0.05546545  0.97293883  0.66942511    -0.12550
C2231       C  0.98654435  0.06686878  0.68123111    -0.11000
C2232       C  0.98561236  0.04963047  0.66690812    -0.12550
C2233       C  0.10571280  0.00811586  0.55081150    -0.11000
C2234       C  0.08931840  0.00659478  0.56595627    -0.12550
C2235       C  0.00667793  0.07324122  0.55987674    -0.11000
C2236       C  0.00448998  0.09048216  0.54594845    -0.12550
C2237       C  0.93579717  0.00286348  0.57398622    -0.11000
C2238       C  0.92031195  0.01123064  0.55998311    -0.12550
C2239       C  0.92314590  0.00857409  0.40736649    -0.11000
C2240       C  0.93833674  0.00846076  0.39086562    -0.12550
C2241       C  0.92951857  0.10935645  0.47569013    -0.11000
C2242       C  0.91531762  0.09288245  0.48143605    -0.12550
C2243       C  0.09708883  0.91135575  0.47923274    -0.11000
C2244       C  0.11174468  0.92812521  0.47578983    -0.12550
C2245       C  0.02101721  0.90592333  0.55998945    -0.11000
C2246       C  0.01520282  0.92195525  0.57467789    -0.12550
C2247       C  0.93341650  0.94221121  0.48857682    -0.11000
C2248       C  0.94842721  0.92572831  0.48892911    -0.12550
C2249       C  0.01476103  0.92165929  0.40898635    -0.11000
C2250       C  0.01568933  0.93850574  0.39430777    -0.12550
C2251       C  0.29292570  0.20508341  0.69205405    -0.11000
C2252       C  0.29177849  0.22085783  0.67609864    -0.12550
C2253       C  0.22123476  0.29881953  0.67400255    -0.11000
C2254       C  0.20527009  0.30027196  0.68958224    -0.12550
C2255       C  0.17122409  0.26022123  0.55375133    -0.11000
C2256       C  0.18704459  0.26000953  0.56976477    -0.12550
C2257       C  0.26279855  0.34174328  0.57615794    -0.11000
C2258       C  0.25786742  0.35778332  0.56122356    -0.12550
C2259       C  0.34134800  0.26330715  0.58242147    -0.11000
C2260       C  0.35669922  0.25788181  0.56709268    -0.12550
C2261       C  0.26332085  0.19005271  0.56770522    -0.11000
C2262       C  0.26234506  0.17393757  0.55219241    -0.12550
C2263       C  0.95358484  0.04238759  0.27035909    -0.11000
C2264       C  0.97019376  0.04242128  0.28564369    -0.12550
C2265       C  0.96578124  0.95114910  0.19757932    -0.11000
C2266       C  0.94978332  0.96682547  0.19837536    -0.12550
C2267       C  0.04066550  0.96632266  0.28594221    -0.11000
C2268       C  0.03944051  0.95013447  0.27051277    -0.12550
C2269       C  0.56195082  0.21813449  0.95406588    -0.11000
C2270       C  0.54582570  0.20232111  0.95427476    -0.12550
C2271       C  0.42389051  0.10518790  0.98185292    -0.11000
C2272       C  0.40854757  0.08967439  0.98771317    -0.12550
C2273       C  0.49979872  0.09252406  0.05730482    -0.11000
C2274       C  0.50133483  0.07779988  0.07410776    -0.12550
C2275       C  0.42435201  0.00447578  0.08119688    -0.11000
C2276       C  0.40927850  0.00851561  0.06497432    -0.12550
C2277       C  0.54683842  0.97672749  0.18096641    -0.11000
C2278       C  0.56273698  0.97643326  0.19681492    -0.12550
C2279       C  0.47060773  0.04582367  0.18222471    -0.11000
C2280       C  0.47097911  0.06118126  0.19874901    -0.12550
C2281       C  0.54657397  0.06141665  0.27215401    -0.11000
C2282       C  0.56241084  0.04546862  0.27265465    -0.12550
C2283       C  0.40873283  0.17556391  0.23641908    -0.11000
C2284       C  0.42305085  0.15882662  0.24077032    -0.12550
C2285       C  0.50125598  0.15712341  0.32054506    -0.11000
C2286       C  0.50741958  0.17359886  0.33466322    -0.12550
C2287       C  0.47251605  0.21433018  0.04524941    -0.11000
C2288       C  0.47228754  0.19903437  0.02901721    -0.12550
C2289       C  0.54652418  0.28777979  0.04278194    -0.11000
C2290       C  0.56285006  0.28902944  0.02721813    -0.12550
C2291       C  0.50336187  0.16812654  0.16904278    -0.11000
C2292       C  0.50214657  0.18463625  0.15391408    -0.12550
C2293       C  0.42620232  0.26008869  0.14091330    -0.11000
C2294       C  0.41074390  0.25435568  0.15631415    -0.12550
C2295       C  0.50950258  0.35322372  0.15529325    -0.11000
C2296       C  0.50658214  0.33646500  0.14070867    -0.12550
C2297       C  0.59591491  0.25290287  0.16333669    -0.11000
C2298       C  0.58043594  0.25246339  0.14710519    -0.12550
C2299       C  0.58731498  0.25412006  0.33216206    -0.11000
C2300       C  0.60211970  0.26158705  0.31683122    -0.12550
C2301       C  0.60286923  0.33973378  0.23574428    -0.11000
C2302       C  0.58836500  0.35621488  0.23079376    -0.12550
C2303       C  0.58763065  0.18891861  0.24593614    -0.11000
C2304       C  0.57231648  0.17267837  0.24687613    -0.12550
C2305       C  0.54455004  0.96695035  0.79325450    -0.11000
C2306       C  0.54541539  0.95131809  0.77724496    -0.12550
C2307       C  0.47208504  0.04255190  0.78927887    -0.11000
C2308       C  0.45677540  0.04298444  0.77263446    -0.12550
C2309       C  0.43856123  0.01159185  0.89635175    -0.11000
C2310       C  0.42352463  0.01325141  0.91288463    -0.12550
C2311       C  0.51052992  0.08961335  0.88935549    -0.11000
C2312       C  0.50592016  0.10481589  0.90518730    -0.12550
C2313       C  0.50742328  0.90970635  0.06958086    -0.11000
C2314       C  0.50151795  0.92499447  0.08513280    -0.12550
C2315       C  0.51183926  0.92223051  0.91610549    -0.11000
C2316       C  0.51404908  0.93860785  0.90096298    -0.12550
C2317       C  0.41852661  0.93685064  0.98658104    -0.11000
C2318       C  0.43497464  0.92192771  0.98892243    -0.12550
C2319       C  0.59278465  0.00606323  0.05766701    -0.11000
C2320       C  0.57608844  0.00382669  0.07249396    -0.12550
C2321       C  0.60596997  0.00619300  0.90468351    -0.11000
C2322       C  0.59117223  0.01248565  0.88885160    -0.12550
C2323       C  0.60226499  0.92872131  0.98626731    -0.11000
C2324       C  0.58680921  0.91310629  0.99075804    -0.12550
C2325       C  0.59215910  0.08017475  0.98231347    -0.11000
C2326       C  0.57697570  0.09645734  0.98415952    -0.12550
C2327       C  0.50565774  0.42705547  0.58234976    -0.11000
C2328       C  0.51129122  0.41125704  0.56735462    -0.12550
C2329       C  0.42657525  0.50841469  0.58195884    -0.11000
C2330       C  0.41123608  0.51653114  0.56733932    -0.12550
C2331       C  0.50667790  0.60572057  0.40344612    -0.11000
C2332       C  0.51154652  0.58999857  0.38804352    -0.12550
C2333       C  0.42630370  0.61251954  0.48153476    -0.11000
C2334       C  0.41079705  0.59724403  0.48735990    -0.12550
C2335       C  0.49998466  0.59365309  0.55392811    -0.11000
C2336       C  0.50034378  0.57768835  0.56943867    -0.12550
C2337       C  0.60328788  0.42821358  0.48389463    -0.11000
C2338       C  0.58798973  0.41218079  0.48715959    -0.12550
C2339       C  0.58041419  0.51020333  0.57438717    -0.11000
C2340       C  0.59683567  0.51046573  0.55900908    -0.12550
C2341       C  0.57839184  0.59568396  0.48357779    -0.11000
C2342       C  0.59364701  0.57945800  0.48196070    -0.12550
C2343       C  0.60482917  0.50509182  0.40504133    -0.11000
C2344       C  0.58841293  0.50954865  0.39034035    -0.12550
C2345       C  0.29643736  0.95113579  0.01259527    -0.11000
C2346       C  0.31214680  0.96724897  0.01367447    -0.12550
C2347       C  0.25740725  0.09230823  0.82746322    -0.11000
C2348       C  0.26415948  0.10818666  0.81287196    -0.12550
C2349       C  0.25791318  0.92392260  0.79888976    -0.11000
C2350       C  0.25952749  0.93948326  0.81486868    -0.12550
C2351       C  0.33321728  0.01641948  0.81611172    -0.11000
C2352       C  0.35024662  0.01448270  0.80178226    -0.12550
C2353       C  0.16555960  0.00319617  0.80595836    -0.11000
C2354       C  0.18097259  0.00951983  0.82105338    -0.12550
C2355       C  0.22628794  0.96821894  0.92010380    -0.11000
C2356       C  0.22630162  0.95168851  0.93542012    -0.12550
C2357       C  0.30013686  0.04038350  0.92285172    -0.11000
C2358       C  0.31536225  0.03998598  0.93927886    -0.12550
C2359       C  0.97124783  0.54670680  0.17735429    -0.11000
C2360       C  0.97085292  0.56370237  0.19209540    -0.12550
C2361       C  0.00521514  0.41147723  0.06372860    -0.11000
C2362       C  0.99994832  0.42487620  0.08111234    -0.12550
C2363       C  0.08818833  0.49489461  0.05200914    -0.11000
C2364       C  0.07232194  0.49498824  0.06770995    -0.12550
C2365       C  0.10246124  0.42390385  0.97949539    -0.11000
C2366       C  0.08613681  0.40968229  0.98562284    -0.12550
C2367       C  0.21506712  0.56003286  0.95094199    -0.11000
C2368       C  0.20036780  0.54321244  0.95274831    -0.12550
C2369       C  0.06291298  0.55217510  0.26513239    -0.11000
C2370       C  0.04665404  0.56744065  0.26335408    -0.12550
C2371       C  0.06246695  0.47674521  0.19608784    -0.11000
C2372       C  0.04711481  0.47575205  0.17962877    -0.12550
C2373       C  0.15862631  0.42771835  0.23793218    -0.11000
C2374       C  0.17457063  0.41243229  0.23425200    -0.12550
C2375       C  0.16016771  0.50781885  0.31634274    -0.11000
C2376       C  0.17528270  0.51514869  0.33158152    -0.12550
C2377       C  0.19995263  0.47070745  0.02734524    -0.11000
C2378       C  0.21649483  0.47190458  0.04248760    -0.12550
C2379       C  0.28802792  0.54774067  0.03933592    -0.11000
C2380       C  0.28848208  0.56217500  0.02207076    -0.12550
C2381       C  0.18313378  0.51063055  0.14602191    -0.11000
C2382       C  0.16764703  0.51070217  0.16234841    -0.12550
C2383       C  0.25767467  0.42723764  0.14015919    -0.11000
C2384       C  0.25296477  0.41107225  0.15507608    -0.12550
C2385       C  0.35198088  0.50981259  0.15393318    -0.11000
C2386       C  0.33702596  0.50476920  0.13785740    -0.12550
C2387       C  0.26087591  0.57901582  0.14875435    -0.11000
C2388       C  0.25960983  0.59546281  0.16382222    -0.12550
C2389       C  0.25619753  0.59451109  0.33051019    -0.11000
C2390       C  0.26206481  0.61039159  0.31561729    -0.12550
C2391       C  0.35620186  0.59105368  0.23054469    -0.11000
C2392       C  0.34053561  0.60650789  0.23543608    -0.12550
C2393       C  0.18996558  0.59308178  0.24293638    -0.11000
C2394       C  0.17406800  0.57751150  0.24268327    -0.12550
C2395       C  0.97011029  0.53894065  0.78608952    -0.11000
C2396       C  0.95425366  0.53918383  0.77020425    -0.11590
C2397       C  0.04342075  0.46744462  0.78449287    -0.11000
C2398       C  0.04399920  0.45269160  0.76750636    -0.12550
C2399       C  0.10692821  0.50341181  0.90153464    -0.11000
C2400       C  0.09244628  0.50683423  0.88470130    -0.12550
C2401       C  0.00972274  0.42145491  0.90994902    -0.11000
C2402       C  0.00944809  0.43576916  0.89274721    -0.12550
C2403       C  0.92777897  0.51515918  0.91443100    -0.11000
C2404       C  0.94338668  0.51530288  0.89833757    -0.12550
C2405       C  0.91585034  0.43424622  0.97950741    -0.11000
C2406       C  0.93126799  0.41802565  0.97964729    -0.12550
C2407       C  0.90825267  0.50714810  0.06521289    -0.11000
C2408       C  0.92291871  0.50351588  0.08180201    -0.12550
C2409       C  0.09762911  0.57658355  0.98738295    -0.11000
C2410       C  0.08216873  0.59282636  0.98694446    -0.12550
C2411       C  0.01684175  0.58622263  0.88339030    -0.11000
C2412       C  0.01112370  0.59981004  0.90035964    -0.12550
C2413       C  0.92863437  0.60154079  0.97869686    -0.11000
C2414       C  0.91298766  0.58707164  0.98604668    -0.12550
C2415       C  0.00260118  0.58956790  0.05327327    -0.11000
C2416       C  0.00365225  0.57489758  0.07017148    -0.12550
C2417       C  0.95177959  0.29641886  0.01490107    -0.11000
C2418       C  0.96665417  0.31317981  0.01525786    -0.12550
C2419       C  0.09225355  0.25772725  0.82644578    -0.11000
C2420       C  0.10768368  0.26301862  0.81085778    -0.12550
C2421       C  0.93878294  0.26387992  0.81502666    -0.11000
C2422       C  0.92350258  0.26348556  0.79866641    -0.12550
C2423       C  0.01490649  0.34642253  0.79360355    -0.11000
C2424       C  0.01605936  0.33099670  0.80978162    -0.12550
C2425       C  0.01517349  0.18132753  0.82018799    -0.11000
C2426       C  0.01344464  0.16625058  0.80361244    -0.12550
C2427       C  0.96997805  0.22843716  0.92176709    -0.11000
C2428       C  0.95404335  0.22705610  0.93781719    -0.12550
C2429       C  0.03990683  0.30193874  0.92258240    -0.11000
C2430       C  0.03847712  0.31671665  0.93934260    -0.12550
C2431       C  0.35449462  0.67374563  0.98093959    -0.11000
C2432       C  0.33946208  0.65747447  0.97722160    -0.12550
C2433       C  0.32577137  0.84230214  0.98081122    -0.11000
C2434       C  0.34050783  0.82553557  0.98267367    -0.12550
C2435       C  0.44839712  0.79840789  0.01387458    -0.11000
C2436       C  0.46398244  0.81442515  0.01485490    -0.12550
C2437       C  0.01085085  0.67433325  0.32743131    -0.11000
C2438       C  0.00324878  0.66007492  0.31175603    -0.12550
C2439       C  0.01018543  0.84067508  0.30016497    -0.11000
C2440       C  0.00865854  0.82531161  0.31639317    -0.12550
C2441       C  0.04385142  0.79628658  0.42076936    -0.11000
C2442       C  0.04516565  0.81271274  0.43605860    -0.12550
C2443       C  0.20010478  0.72047076  0.26069251    -0.11000
C2444       C  0.21567599  0.70430566  0.26198125    -0.12550
C2445       C  0.10301698  0.84051137  0.22942473    -0.11000
C2446       C  0.08696663  0.85527691  0.22380100    -0.12550
C2447       C  0.08917131  0.75488654  0.32390929    -0.11000
C2448       C  0.10377977  0.75967166  0.30754435    -0.12550
C2449       C  0.07630625  0.67376638  0.23215089    -0.11000
C2450       C  0.09297879  0.68855836  0.22972920    -0.12550
C2451       C  0.07641980  0.76171116  0.13903226    -0.11000
C2452       C  0.09134980  0.76407287  0.15549941    -0.12550
C2453       C  0.97516996  0.69743827  0.02038177    -0.11000
C2454       C  0.97430127  0.71394405  0.03540283    -0.12550
C2455       C  0.00584555  0.85312190  0.14834699    -0.11000
C2456       C  0.00254955  0.83790483  0.13217784    -0.12550
C2457       C  0.00051521  0.68683713  0.14299695    -0.11000
C2458       C  0.00190368  0.67045447  0.15816088    -0.12550
C2459       C  0.04596738  0.78924456  0.03276558    -0.11000
C2460       C  0.06226160  0.78890306  0.01710077    -0.12550
C2461       C  0.06539931  0.71298303  0.94709088    -0.11000
C2462       C  0.04947545  0.69711054  0.94780205    -0.12550
C2463       C  0.15975517  0.83960076  0.97702043    -0.11000
C2464       C  0.17440159  0.85598219  0.98204764    -0.12550
C2465       C  0.17482899  0.68888249  0.97054904    -0.11000
C2466       C  0.19008543  0.67269630  0.96997493    -0.12550
C2467       C  0.21663478  0.79023090  0.16960194    -0.11000
C2468       C  0.19958633  0.79059416  0.18415210    -0.12550
C2469       C  0.29008754  0.71560032  0.17291709    -0.11000
C2470       C  0.29036812  0.70124770  0.19019843    -0.12550
C2471       C  0.16879466  0.75444376  0.05173852    -0.11000
C2472       C  0.18446682  0.75363671  0.06782115    -0.12550
C2473       C  0.25750505  0.83650566  0.07412759    -0.11000
C2474       C  0.25353006  0.85302394  0.05941836    -0.12550
C2475       C  0.33828972  0.75857597  0.07570750    -0.11000
C2476       C  0.35355855  0.75211611  0.06046925    -0.12550
C2477       C  0.26028912  0.66819357  0.04870162    -0.11000
C2478       C  0.26231784  0.68465474  0.06364185    -0.12550
C2479       C  0.25727926  0.67156876  0.88254819    -0.11000
C2480       C  0.26240390  0.65516621  0.89719527    -0.12550
C2481       C  0.25033563  0.82307230  0.89600409    -0.11000
C2482       C  0.24918386  0.83998082  0.91041888    -0.12550
C2483       C  0.34822621  0.75575663  0.90612256    -0.11000
C2484       C  0.33200113  0.75546238  0.89065867    -0.12550
C2485       C  0.17818106  0.75193946  0.88330558    -0.11000
C2486       C  0.16275808  0.75922940  0.89825331    -0.12550
C2487       C  0.23284681  0.81373191  0.77049783    -0.11000
C2488       C  0.23086024  0.79775165  0.78624096    -0.12550
C2489       C  0.90807542  0.75821585  0.14530242    -0.11000
C2490       C  0.92335961  0.76234419  0.12918578    -0.12550
C2491       C  0.90818752  0.67880443  0.22387354    -0.11000
C2492       C  0.92401795  0.66414426  0.23026710    -0.12550
C2493       C  0.91642347  0.83139985  0.23198629    -0.11000
C2494       C  0.93216537  0.84737352  0.23240341    -0.12550
C2495       C  0.92428804  0.74878109  0.29615538    -0.11000
C2496       C  0.93959664  0.74760905  0.31240941    -0.12550
C2497       C  0.97323562  0.81296462  0.51015192    -0.11000
C2498       C  0.95724893  0.79722059  0.51208862    -0.12550
C2499       C  0.95525499  0.72236359  0.44246489    -0.11000
C2500       C  0.96940167  0.72283758  0.42496438    -0.12550
C2501       C  0.54404760  0.79916790  0.93237839    -0.11000
C2502       C  0.54314902  0.81521477  0.94814043    -0.12550
C2503       C  0.47077255  0.72436636  0.92840364    -0.11000
C2504       C  0.45404129  0.72373753  0.94342177    -0.12550
C2505       C  0.51102915  0.83170454  0.82680607    -0.11000
C2506       C  0.51060305  0.84768392  0.81104293    -0.12550
C2507       C  0.42629201  0.82603754  0.73443473    -0.11000
C2508       C  0.44258192  0.84131249  0.73297682    -0.12550
C2509       C  0.43024980  0.74845377  0.80353108    -0.11000
C2510       C  0.44652274  0.74954329  0.81884060    -0.12550
C2511       C  0.30058929  0.72270720  0.78773797    -0.11000
C2512       C  0.31801150  0.72328431  0.77352250    -0.12550
C2513       C  0.30622334  0.81331216  0.69762399    -0.11000
C2514       C  0.32161450  0.79693237  0.69897277    -0.12550
C2515       C  0.61335136  0.76267346  0.81970182    -0.11000
C2516       C  0.59729157  0.75837371  0.83499645    -0.12550
C2517       C  0.61052287  0.83852989  0.74043312    -0.11000
C2518       C  0.59432987  0.85370209  0.73710487    -0.12550
C2519       C  0.56223707  0.47458425  0.69542227    -0.11000
C2520       C  0.54604868  0.47524942  0.67978649    -0.12550
C2521       C  0.43092831  0.66045862  0.73925364    -0.11000
C2522       C  0.41534050  0.67490483  0.73180012    -0.12550
C2523       C  0.51208952  0.66433028  0.81870399    -0.11000
C2524       C  0.51849193  0.67900626  0.83455616    -0.12550
C2525       C  0.59925779  0.68742225  0.74232737    -0.11000
C2526       C  0.58419825  0.67095305  0.74090023    -0.12550
C2527       C  0.48018529  0.56662663  0.69590885    -0.11000
C2528       C  0.47840299  0.55112360  0.67978171    -0.12550
C2529       C  0.55004982  0.56361832  0.77214381    -0.11000
C2530       C  0.56454964  0.54643889  0.77166017    -0.12550
C2531       C  0.55298660  0.70092120  0.45267031    -0.11000
C2532       C  0.57028505  0.71521681  0.45285949    -0.12550
C2533       C  0.43554090  0.76028118  0.63926361    -0.11000
C2534       C  0.41911197  0.75559290  0.65382489    -0.12550
C2535       C  0.51890575  0.85577291  0.65602272    -0.11000
C2536       C  0.51342634  0.84097596  0.63996009    -0.12550
C2537       C  0.51313843  0.68889774  0.64984039    -0.11000
C2538       C  0.51060898  0.67396493  0.66638990    -0.12550
C2539       C  0.58746439  0.76456391  0.65142619    -0.11000
C2540       C  0.60390342  0.76229662  0.66637986    -0.12550
C2541       C  0.48218838  0.72113963  0.54287682    -0.11000
C2542       C  0.48088635  0.70499043  0.52730806    -0.12550
C2543       C  0.57325554  0.79021872  0.52605789    -0.11000
C2544       C  0.55874884  0.79077120  0.54314681    -0.12550
C2545       C  0.68283669  0.75158659  0.38944269    -0.11000
C2546       C  0.66759918  0.75821196  0.40466252    -0.12550
C2547       C  0.83685601  0.75522618  0.39506116    -0.11000
C2548       C  0.85233727  0.75508784  0.41127990    -0.12550
C2549       C  0.79977085  0.72339048  0.28867080    -0.11000
C2550       C  0.81479259  0.72410710  0.27194375    -0.12550
C2551       C  0.84463375  0.75920159  0.58031840    -0.11000
C2552       C  0.85969658  0.75180796  0.56503560    -0.12550
C2553       C  0.67504894  0.75400778  0.55847745    -0.11000
C2554       C  0.69116212  0.75490194  0.57409865    -0.12550
C2555       C  0.72563247  0.78887727  0.68075399    -0.11000
C2556       C  0.70994137  0.78925623  0.69704489    -0.12550
C2557       C  0.69942153  0.47171715  0.52538529    -0.11000
C2558       C  0.71422872  0.47025715  0.54211957    -0.12550
C2559       C  0.85652389  0.50836621  0.64736422    -0.11000
C2560       C  0.83959745  0.50411763  0.63331463    -0.12550
C2561       C  0.68927956  0.49443423  0.65417255    -0.11000
C2562       C  0.67363337  0.49459623  0.67010464    -0.12550
C2563       C  0.76616912  0.65686734  0.40296177    -0.11000
C2564       C  0.76234268  0.67298253  0.38780072    -0.12550
C2565       C  0.86067219  0.67124129  0.48597588    -0.11000
C2566       C  0.84597235  0.65492818  0.48077950    -0.12550
C2567       C  0.69447323  0.66844824  0.48234852    -0.11000
C2568       C  0.67947152  0.68485661  0.48050623    -0.12550
C2569       C  0.77215727  0.68916457  0.56787981    -0.11000
C2570       C  0.77281092  0.67299554  0.55260429    -0.12550
C2571       C  0.72090709  0.56280748  0.45395562    -0.11000
C2572       C  0.70353867  0.54855118  0.45431501    -0.12550
C2573       C  0.78875678  0.54317886  0.54228247    -0.11000
C2574       C  0.79115330  0.56007132  0.52778078    -0.12550
C2575       C  0.67860320  0.35257550  0.98588883    -0.11000
C2576       C  0.66255740  0.33776141  0.97983831    -0.12550
C2577       C  0.84900504  0.32942258  0.97904990    -0.11000
C2578       C  0.83338683  0.34547938  0.97961469    -0.12550
C2579       C  0.79862888  0.45152681  0.01401118    -0.11000
C2580       C  0.81381139  0.46815627  0.01320587    -0.12550
C2581       C  0.67881703  0.00836688  0.33426150    -0.11000
C2582       C  0.66254742  0.00410500  0.31931905    -0.12550
C2583       C  0.83065013  0.01384853  0.31960530    -0.11000
C2584       C  0.84702123  0.01197509  0.30441973    -0.12550
C2585       C  0.80392284  0.04092913  0.42824543    -0.11000
C2586       C  0.81976889  0.04105475  0.44408348    -0.12550
C2587       C  0.70000968  0.05056638  0.95490048    -0.11000
C2588       C  0.71650986  0.06571657  0.95364636    -0.12550
C2589       C  0.83860682  0.16138405  0.97999656    -0.11000
C2590       C  0.85477640  0.17616864  0.98544240    -0.12550
C2591       C  0.68329510  0.16950951  0.98701825    -0.11000
C2592       C  0.66737181  0.18523118  0.98786382    -0.12550
C2593       C  0.76149768  0.17461369  0.05538158    -0.11000
C2594       C  0.75958916  0.18869561  0.07257465    -0.12550
C2595       C  0.71609025  0.28873926  0.18038774    -0.11000
C2596       C  0.70039944  0.28797709  0.19661269    -0.12550
C2597       C  0.83900970  0.25840202  0.07906155    -0.11000
C2598       C  0.85430927  0.25501026  0.06270433    -0.12550
C2599       C  0.75917382  0.35260415  0.06449569    -0.11000
C2600       C  0.76405978  0.33869305  0.08162415    -0.12550
C2601       C  0.67339146  0.26748734  0.05409619    -0.11000
C2602       C  0.68910862  0.26798240  0.06989315    -0.12550
C2603       C  0.78954839  0.21784834  0.18070630    -0.11000
C2604       C  0.78906347  0.20213335  0.19693239    -0.12550
C2605       C  0.71408265  0.20052508  0.27015202    -0.11000
C2606       C  0.69800842  0.21608431  0.27041425    -0.12550
C2607       C  0.83754099  0.10484448  0.23722817    -0.11000
C2608       C  0.85331234  0.08959107  0.23245809    -0.12550
C2609       C  0.76114041  0.10582541  0.31951320    -0.11000
C2610       C  0.75542058  0.09023858  0.33484705    -0.12550
C2611       C  0.66953972  0.07713070  0.24180025    -0.11000
C2612       C  0.68595391  0.09225761  0.24344217    -0.12550
C2613       C  0.78728763  0.06707263  0.02814806    -0.11000
C2614       C  0.78625522  0.05114950  0.04385241    -0.12550
C2615       C  0.71525856  0.97420816  0.04361126    -0.11000
C2616       C  0.69943453  0.97431175  0.02759919    -0.12550
C2617       C  0.75977457  0.07973641  0.15140638    -0.11000
C2618       C  0.75810129  0.09618100  0.16644969    -0.12550
C2619       C  0.85396211  0.01259191  0.15155949    -0.11000
C2620       C  0.83811863  0.00632494  0.13678571    -0.12550
C2621       C  0.67080092  0.00188694  0.16749822    -0.11000
C2622       C  0.68542327  0.00414198  0.15069735    -0.12550
C2623       C  0.72863309  0.81438814  0.27932944    -0.11000
C2624       C  0.72946763  0.79821331  0.29476136    -0.12550
C2625       C  0.79539473  0.81541516  0.20004034    -0.11000
C2626       C  0.81107170  0.79933730  0.19897549    -0.12550
C2627       C  0.75292651  0.91275694  0.15647283    -0.11000
C2628       C  0.75741465  0.92822730  0.14086406    -0.12550
C2629       C  0.67411374  0.90923816  0.23624336    -0.11000
C2630       C  0.65853802  0.92439803  0.24227230    -0.12550
C2631       C  0.82735171  0.92200851  0.23124543    -0.11000
C2632       C  0.84236271  0.93845032  0.22890960    -0.12550
C2633       C  0.75519590  0.92227686  0.30849884    -0.11000
C2634       C  0.75760870  0.93730406  0.32487608    -0.12550
C2635       C  0.75451240  0.17497308  0.88480290    -0.11000
C2636       C  0.75886931  0.16123037  0.90212320    -0.12550
C2637       C  0.66269726  0.25746515  0.90358588    -0.11000
C2638       C  0.67848197  0.25400625  0.88772254    -0.12550
C2639       C  0.82902977  0.24709662  0.89575513    -0.11000
C2640       C  0.84466906  0.24773045  0.91153542    -0.12550
C2641       C  0.75574007  0.34048251  0.91157772    -0.11000
C2642       C  0.75759929  0.32576156  0.89488477    -0.12550
C2643       C  0.80191041  0.22743135  0.78580724    -0.11000
C2644       C  0.81761610  0.22837898  0.76950800    -0.12550
C2645       C  0.76075183  0.85609319  0.56849794    -0.11000
C2646       C  0.76594200  0.83982823  0.58323310    -0.12550
C2647       C  0.68267568  0.85311648  0.48958118    -0.11000
C2648       C  0.66802221  0.83661546  0.48550502    -0.12550
C2649       C  0.83172784  0.83901612  0.49365752    -0.11000
C2650       C  0.84651123  0.82241946  0.49276352    -0.12550
C2651       C  0.76113999  0.84132537  0.41696575    -0.11000
C2652       C  0.75960426  0.82456750  0.40223783    -0.12550
C2653       C  0.80744962  0.95046225  0.51491741    -0.11000
C2654       C  0.82333891  0.96631187  0.51470683    -0.12550
C2655       C  0.72981582  0.96721393  0.43068946    -0.11000
C2656       C  0.73051523  0.95078084  0.44610169    -0.12550
C2657       C  0.80199701  0.54388324  0.92374510    -0.11000
C2658       C  0.81762866  0.54380311  0.93970488    -0.12550
C2659       C  0.72951091  0.44980329  0.94039567    -0.11000
C2660       C  0.73026926  0.46699920  0.92600124    -0.12550
C2661       C  0.67638438  0.50655743  0.83411022    -0.11000
C2662       C  0.65965177  0.50277987  0.81967957    -0.12550
C2663       C  0.82651653  0.51739097  0.81238420    -0.11000
C2664       C  0.84236847  0.51744864  0.79659616    -0.12550
C2665       C  0.67710064  0.41091394  0.73655102    -0.11000
C2666       C  0.65989171  0.42434810  0.74218256    -0.12550
C2667       C  0.75478477  0.40887148  0.65467011    -0.11000
C2668       C  0.76129384  0.42328896  0.63869385    -0.12550
C2669       C  0.82999503  0.42242857  0.72971755    -0.11000
C2670       C  0.84665955  0.43738749  0.73008045    -0.12550
C2671       C  0.76323968  0.43507269  0.82411256    -0.11000
C2672       C  0.76293271  0.41867593  0.80882794    -0.12550
C2673       C  0.79988681  0.31490439  0.70154062    -0.11000
C2674       C  0.81608956  0.29961184  0.69886829    -0.12550
C2675       C  0.72505147  0.31353184  0.77485380    -0.11000
C2676       C  0.72497730  0.29676092  0.78972592    -0.12550
C2677       C  0.75460302  0.58762037  0.82929011    -0.11000
C2678       C  0.76201952  0.60209750  0.81373931    -0.12550
C2679       C  0.84040058  0.60079802  0.73067763    -0.11000
C2680       C  0.85739376  0.58763083  0.72434358    -0.12550
C2681       C  0.67109612  0.57453276  0.73871132    -0.11000
C2682       C  0.68782510  0.58939399  0.73971919    -0.12550
C2683       C  0.75389930  0.59236451  0.66028341    -0.11000
C2684       C  0.75353698  0.57602835  0.64488423    -0.12550
C2685       C  0.72115434  0.69747138  0.76768368    -0.11000
C2686       C  0.70640683  0.71414016  0.76898005    -0.12550
C2687       C  0.79387077  0.69686713  0.69305295    -0.11000
C2688       C  0.79512850  0.71286674  0.67731041    -0.12550
loop_ 
_geom_bond_atom_site_label_1 
_geom_bond_atom_site_label_2 
_geom_bond_distance 
_geom_bond_site_symmetry_2 
_ccdc_geom_bond_type 
O1          Cr19   1.994       .  S
O1            C9   1.261       .  A
O2          Cr19   1.967       .  S
O2            C3   1.259       .  A
C3            O4   1.267       .  A
C3         C2679   1.435       .  S
O4          Cr20   2.019       .  S
O5          Cr20   1.992       .  S
O5            C6   1.263       .  A
C6            O7   1.264       .  A
C6         C2687   1.438       .  S
O7          Cr21   1.997       .  S
O8          Cr21   1.994       .  S
O8            C9   1.261       .  A
C9         C2683   1.437       .  S
O10         Cr19   1.982       .  S
O10          C18   1.261       .  A
O11         Cr19   1.994       .  S
O11          C12   1.259       .  A
C12          O13   1.259       .  A
C12        C2678   1.440       .  S
O13         Cr20   1.998       .  S
O14         Cr20   2.000       .  S
O14          C15   1.261       .  A
C15          O16   1.258       .  A
C15        C2685   1.426       .  S
O16         Cr21   1.970       .  S
O17         Cr21   2.006       .  S
O17          C18   1.263       .  A
C18        C2682   1.433       .  S
Cr19         O22   1.766       .  S
Cr20         O22   1.782       .  S
Cr21         O22   1.767       .  S
O23         Cr41   1.982       .  S
O23          C31   1.261       .  A
O24         Cr41   1.995       .  S
O24          C25   1.259       .  A
C25          O26   1.258       .  A
C25        C2667   1.438       .  S
O26         Cr42   1.994       .  S
O27         Cr42   2.021       .  S
O27          C28   1.267       .  A
C28          O29   1.258       .  A
C28        C2673   1.437       .  S
O29         Cr43   1.969       .  S
O30         Cr43   2.006       .  S
O30          C31   1.263       .  A
C31        C2669   1.433       .  S
O32         Cr41   1.995       .  S
O32          C40   1.261       .  A
O33         Cr41   1.971       .  S
O33          C34   1.259       .  A
C34          O35   1.272       .  A
C34        C2665   1.447       .  S
O35         Cr42   2.035       .  S
O36         Cr42   1.986       .  S
O36          C37   1.260       .  A
C37          O38   1.263       .  A
C37        C2675   1.433       .  S
O38         Cr43   1.994       .  S
O39         Cr43   1.990       .  S
O39          C40   1.260       .  A
C40        C2672   1.434       .  S
Cr41         O44   1.766       .  S
Cr42         O44   1.781       .  S
Cr43         O44   1.770       .  S
O45         Cr63   1.999       .  S
O45          C53   1.262       .  A
O46         Cr63   1.963       .  S
O46          C47   1.257       .  A
C47          O48   1.268       .  A
C47        C2661   1.433       .  S
O48         Cr64   2.023       .  S
O49         Cr64   1.989       .  S
O49          C50   1.263       .  A
C50          O51   1.265       .  A
C50        C2660   1.435       .  S
O51         Cr65   1.999       .  S
O52         Cr65   1.986       .  S
O52          C53   1.258       .  A
C53        C2671   1.435       .  S
O54         Cr63   1.971       .  S
O54          C62   1.257       .  A
O55         Cr63   1.997       .  S
O55          C56   1.261       .  A
C56          O57   1.260       .  A
C56        C2677   1.439       .  S
O57         Cr64   1.998       .  S
O58         Cr64   2.008       .  S
O58          C59   1.263       .  A
C59          O60   1.256       .  A
C59        C2657   1.426       .  S
O60         Cr65   1.967       .  S
O61         Cr65   2.007       .  S
O61          C62   1.264       .  A
C62        C2663   1.427       .  S
Cr63         O66   1.761       .  S
Cr64         O66   1.777       .  S
Cr65         O66   1.764       .  S
O67         Cr85   1.962       .  S
O67          C75   1.257       .  A
O68         Cr85   1.986       .  S
O68          C69   1.255       .  A
C69          O70   1.261       .  A
C69        C2645   1.444       .  S
O70         Cr86   2.015       .  S
O71         Cr86   2.022       .  S
O71          C72   1.268       .  A
C72          O73   1.258       .  A
C72        C2653   1.437       .  S
O73         Cr87   1.966       .  S
O74         Cr87   2.010       .  S
O74          C75   1.266       .  A
C75        C2649   1.419       .  S
O76         Cr85   1.986       .  S
O76          C84   1.257       .  A
O77         Cr85   1.947       .  S
O77          C78   1.254       .  A
C78          O79   1.276       .  A
C78        C2647   1.434       .  S
O79         Cr86   2.046       .  S
O80         Cr86   2.000       .  S
O80          C81   1.264       .  A
C81          O82   1.263       .  A
C81        C2656   1.444       .  S
O82         Cr87   1.995       .  S
O83         Cr87   1.993       .  S
O83          C84   1.259       .  A
C84        C2651   1.428       .  S
Cr85         O88   1.764       .  S
Cr86         O88   1.774       .  S
Cr87         O88   1.765       .  S
O89        Cr107   1.983       .  S
O89          C97   1.256       .  A
O90        Cr107   1.959       .  S
O90          C91   1.257       .  A
C91          O92   1.280       .  A
C91        C2638   1.450       .  S
O92        Cr108   2.061       .  S
O93        Cr108   1.993       .  S
O93          C94   1.262       .  A
C94          O95   1.261       .  A
C94        C2676   1.432       .  S
O95        Cr109   1.983       .  S
O96        Cr109   1.990       .  S
O96          C97   1.257       .  A
C97        C2642   1.425       .  S
O98        Cr107   1.965       .  S
O98         C106   1.258       .  A
O99        Cr107   1.980       .  S
O99         C100   1.253       .  A
C100        O101   1.263       .  A
C100       C2635   1.440       .  S
O101       Cr108   2.016       .  S
O102       Cr108   2.048       .  S
O102        C103   1.275       .  A
C103        O104   1.256       .  A
C103       C2643   1.451       .  S
O104       Cr109   1.965       .  S
O105       Cr109   2.001       .  S
O105        C106   1.264       .  A
C106       C2639   1.416       .  S
Cr107       O110   1.763       .  S
Cr108       O110   1.770       .  S
Cr109       O110   1.766       .  S
O111       Cr129   1.989       .  S
O111        C119   1.258       .  A
O112       Cr129   1.954       .  S
O112        C113   1.256       .  A
C113        O114   1.271       .  A
C113       C2627   1.433       .  S
O114       Cr130   2.030       .  S
O115       Cr130   2.000       .  S
O115        C116   1.262       .  A
C116        O117   1.260       .  A
C116       C2625   1.440       .  S
O117       Cr131   1.988       .  S
O118       Cr131   1.993       .  S
O118        C119   1.259       .  A
C119       C2631   1.430       .  S
O120       Cr129   1.978       .  S
O120        C128   1.261       .  A
O121       Cr129   1.991       .  S
O121        C122   1.257       .  A
C122        O123   1.261       .  A
C122       C2629   1.446       .  S
O123       Cr130   2.010       .  S
O124       Cr130   2.014       .  S
O124        C125   1.267       .  A
C125        O126   1.258       .  A
C125       C2623   1.429       .  S
O126       Cr131   1.963       .  S
O127       Cr131   2.005       .  S
O127        C128   1.264       .  A
C128       C2633   1.429       .  S
Cr129       O132   1.765       .  S
Cr130       O132   1.778       .  S
Cr131       O132   1.767       .  S
O133       Cr151   1.987       .  S
O133        C141   1.258       .  A
O134       Cr151   1.955   1_565  S
O134        C135   1.256       .  A
C135        O136   1.271       .  A
C135       C2628   1.433       .  S
O136       Cr152   2.030       .  S
O137       Cr152   2.001       .  S
O137        C138   1.262       .  A
C138        O139   1.260   1_565  A
C138       C2615   1.440       .  S
O139       Cr153   1.988       .  S
O140       Cr153   1.991       .  S
O140        C141   1.259       .  A
C141       C2622   1.427       .  S
O142       Cr151   1.978       .  S
O142        C150   1.260       .  A
O143       Cr151   1.990   1_565  S
O143        C144   1.257       .  A
C144        O145   1.260   1_565  A
C144       C2620   1.444   1_565  S
O145       Cr152   2.007   1_545  S
O146       Cr152   2.015   1_545  S
O146        C147   1.267       .  A
C147        O148   1.259       .  A
C147       C2614   1.431       .  S
O148       Cr153   1.964       .  S
O149       Cr153   2.005       .  S
O149        C150   1.263       .  A
C150       C2617   1.429       .  S
Cr151       O154   1.765       .  S
Cr152       O154   1.777   1_565  S
Cr153       O154   1.767       .  S
O155       Cr173   1.986       .  S
O155        C163   1.258       .  A
O156       Cr173   1.958       .  S
O156        C157   1.256       .  A
C157        O158   1.272       .  A
C157       C2607   1.438       .  S
O158       Cr174   2.035       .  S
O159       Cr174   2.008       .  S
O159        C160   1.265       .  A
C160        O161   1.261       .  A
C160       C2604   1.448       .  S
O161       Cr175   1.994       .  S
O162       Cr175   1.990       .  S
O162        C163   1.259       .  A
C163       C2618   1.427       .  S
O164       Cr173   1.980       .  S
O164        C172   1.261       .  A
O165       Cr173   1.989       .  S
O165        C166   1.256       .  A
C166        O167   1.263       .  A
C166       C2609   1.448       .  S
O167       Cr174   2.015       .  S
O168       Cr174   2.018       .  S
O168        C169   1.268       .  A
C169        O170   1.258       .  A
C169       C2605   1.431       .  S
O170       Cr175   1.963       .  S
O171       Cr175   2.007       .  S
O171        C172   1.264       .  A
C172       C2612   1.432       .  S
Cr173       O176   1.766       .  S
Cr174       O176   1.777       .  S
Cr175       O176   1.767       .  S
O177       Cr195   1.968       .  S
O177        C185   1.258       .  A
O178       Cr195   1.980       .  S
O178        C179   1.252       .  A
C179        O180   1.264       .  A
C179       C2600   1.446       .  S
O180       Cr196   2.025       .  S
O181       Cr196   2.039       .  S
O181        C182   1.273       .  A
C182        O183   1.257       .  A
C182       C2595   1.445       .  S
O183       Cr197   1.964       .  S
O184       Cr197   2.007       .  S
O184        C185   1.265       .  A
C185       C2602   1.421       .  S
O186       Cr195   1.978       .  S
O186        C194   1.255       .  A
O187       Cr195   1.957       .  S
O187        C188   1.257       .  A
C188        O189   1.281       .  A
C188       C2597   1.450       .  S
O189       Cr196   2.063       .  S
O190       Cr196   2.011       .  S
O190        C191   1.267       .  A
C191        O192   1.261       .  A
C191       C2603   1.447       .  S
O192       Cr197   1.990       .  S
O193       Cr197   1.990       .  S
O193        C194   1.258       .  A
C194       C2594   1.421       .  S
Cr195       O198   1.766       .  S
Cr196       O198   1.770       .  S
Cr197       O198   1.767       .  S
O199       Cr217   1.984   1_554  S
O199        C207   1.260       .  A
O200       Cr217   1.997       .  S
O200        C201   1.260       .  A
C201        O202   1.263       .  A
C201       C2589   1.448       .  S
O202       Cr218   2.008       .  S
O203       Cr218   2.019       .  S
O203        C204   1.267   1_556  A
C204        O205   1.256       .  A
C204       C2613   1.430       .  S
O205       Cr219   1.962       .  S
O206       Cr219   1.988       .  S
O206        C207   1.258       .  A
C207       C2593   1.425       .  S
O208       Cr217   2.000       .  S
O208        C216   1.263       .  A
O209       Cr217   1.971       .  S
O209        C210   1.260       .  A
C210        O211   1.270       .  A
C210       C2636   1.444       .  S
O211       Cr218   2.030       .  S
O212       Cr218   2.001       .  S
O212        C213   1.264       .  A
C213        O214   1.258       .  A
C213       C2588   1.433       .  S
O214       Cr219   1.981   1_556  S
O215       Cr219   1.984   1_556  S
O215        C216   1.259       .  A
C216       C2591   1.433       .  S
Cr217       O220   1.764       .  S
Cr218       O220   1.778       .  S
Cr219       O220   1.770   1_554  S
O221       Cr239   1.988   1_565  S
O221        C229   1.259       .  A
O222       Cr239   1.961       .  S
O222        C223   1.257       .  A
C223        O224   1.272       .  A
C223       C2581   1.440       .  S
O224       Cr240   2.034       .  S
O225       Cr240   2.008   1_565  S
O225        C226   1.264       .  A
C226        O227   1.259       .  A
C226       C2655   1.443       .  S
O227       Cr241   1.987       .  S
O228       Cr241   1.990       .  S
O228        C229   1.260       .  A
C229       C2634   1.428       .  S
O230       Cr239   1.983       .  S
O230        C238   1.261       .  A
O231       Cr239   1.991       .  S
O231        C232   1.258       .  A
C232        O233   1.262       .  A
C232       C2610   1.448       .  S
O233       Cr240   2.012       .  S
O234       Cr240   2.018       .  S
O234        C235   1.268       .  A
C235        O236   1.258       .  A
C235       C2585   1.431       .  S
O236       Cr241   1.965   1_545  S
O237       Cr241   2.002       .  S
O237        C238   1.262   1_565  A
C238       C2583   1.431       .  S
Cr239       O242   1.766       .  S
Cr240       O242   1.777       .  S
Cr241       O242   1.768   1_565  S
O243       Cr261   1.996       .  S
O243        C251   1.261       .  A
O244       Cr261   1.970   1_554  S
O244        C245   1.259       .  A
C245        O246   1.273       .  A
C245       C2599   1.449       .  S
O246       Cr262   2.040       .  S
O247       Cr262   2.009       .  S
O247        C248   1.266       .  A
C248        O249   1.260   1_554  A
C248       C2579   1.443       .  S
O249       Cr263   1.986       .  S
O250       Cr263   1.989       .  S
O250        C251   1.260       .  A
C251       C2578   1.433       .  S
O252       Cr261   1.981       .  S
O252        C260   1.260       .  A
O253       Cr261   1.997       .  S
O253        C254   1.259       .  A
C254        O255   1.264       .  A
C254       C2575   1.456       .  S
O255       Cr262   2.018   1_556  S
O256       Cr262   2.020   1_556  S
O256        C257   1.267       .  A
C257        O258   1.257       .  A
C257       C2659   1.435       .  S
O258       Cr263   1.968       .  S
O259       Cr263   1.996       .  S
O259        C260   1.260       .  A
C260       C2641   1.427       .  S
Cr261       O264   1.769       .  S
Cr262       O264   1.779   1_554  S
Cr263       O264   1.773       .  S
O265       Cr283   1.966       .  S
O265        C273   1.257       .  A
O266       Cr283   1.987       .  S
O266        C267   1.256       .  A
C267        O268   1.263       .  A
C267       C2566   1.446       .  S
O268       Cr284   2.017       .  S
O269       Cr284   2.018       .  S
O269        C270   1.267       .  A
C270        O271   1.257       .  A
C270       C2574   1.430       .  S
O271       Cr285   1.964       .  S
O272       Cr285   2.004       .  S
O272        C273   1.264       .  A
C273       C2570   1.420       .  S
O274       Cr283   1.986       .  S
O274        C282   1.258       .  A
O275       Cr283   1.952       .  S
O275        C276   1.255       .  A
C276        O277   1.273       .  A
C276       C2563   1.435       .  S
O277       Cr284   2.040       .  S
O278       Cr284   2.002       .  S
O278        C279   1.265       .  A
C279        O280   1.261       .  A
C279       C2571   1.437       .  S
O280       Cr285   1.987       .  S
O281       Cr285   1.986       .  S
O281        C282   1.258       .  A
C282       C2567   1.425       .  S
Cr283       O286   1.761       .  S
Cr284       O286   1.772       .  S
Cr285       O286   1.764       .  S
O287       Cr305   1.968       .  S
O287        C295   1.257       .  A
O288       Cr305   1.995       .  S
O288        C289   1.260       .  A
C289        O290   1.260       .  A
C289       C2668   1.437       .  S
O290       Cr306   1.998       .  S
O291       Cr306   2.011       .  S
O291        C292   1.263       .  A
C292        O293   1.256       .  A
C292       C2558   1.430       .  S
O293       Cr307   1.968       .  S
O294       Cr307   2.007       .  S
O294        C295   1.265       .  A
C295       C2561   1.424       .  S
O296       Cr305   1.999       .  S
O296        C304   1.261       .  A
O297       Cr305   1.962       .  S
O297        C298   1.257       .  A
C298        O299   1.269       .  A
C298       C2560   1.433       .  S
O299       Cr306   2.024       .  S
O300       Cr306   1.980       .  S
O300        C301   1.260       .  A
C301        O302   1.266       .  A
C301       C2573   1.431       .  S
O302       Cr307   2.000       .  S
O303       Cr307   1.990       .  S
O303        C304   1.258       .  A
C304       C2684   1.438       .  S
Cr305       O308   1.761       .  S
Cr306       O308   1.777       .  S
Cr307       O308   1.764       .  S
O309       Cr327   2.001       .  S
O309        C317   1.262       .  A
O310       Cr327   1.958       .  S
O310        C311   1.257       .  A
C311        O312   1.276       .  A
C311       C2646   1.445       .  S
O312       Cr328   2.048       .  S
O313       Cr328   2.007       .  S
O313        C314   1.267       .  A
C314        O315   1.264       .  A
C314       C2555   1.449       .  S
O315       Cr329   1.998       .  S
O316       Cr329   1.987       .  S
O316        C317   1.258       .  A
C317       C2554   1.436       .  S
O318       Cr327   1.964       .  S
O318        C326   1.256       .  A
O319       Cr327   1.998       .  S
O319        C320   1.258       .  A
C320        O321   1.264       .  A
C320       C2551   1.456       .  S
O321       Cr328   2.022       .  S
O322       Cr328   2.027       .  S
O322        C323   1.268       .  A
C323        O324   1.254       .  A
C323       C2688   1.438       .  S
O324       Cr329   1.963       .  S
O325       Cr329   2.005       .  S
O325        C326   1.264       .  A
C326       C2569   1.420       .  S
Cr327       O330   1.767       .  S
Cr328       O330   1.776       .  S
Cr329       O330   1.769       .  S
O331       Cr349   1.981       .  S
O331        C339   1.260       .  A
O332       Cr349   1.994       .  S
O332        C333   1.258       .  A
C333        O334   1.259       .  A
C333       C2545   1.442       .  S
O334       Cr350   2.001       .  S
O335       Cr350   2.014       .  S
O335        C336   1.266       .  A
C336        O337   1.257       .  A
C336       C2624   1.429       .  S
O337       Cr351   1.963       .  S
O338       Cr351   2.002       .  S
O338        C339   1.262       .  A
C339       C2652   1.430       .  S
O340       Cr349   1.993       .  S
O340        C348   1.261       .  A
O341       Cr349   1.961       .  S
O341        C342   1.257       .  A
C342        O343   1.271       .  A
C342       C2564   1.437       .  S
O343       Cr350   2.031       .  S
O344       Cr350   1.996       .  S
O344        C345   1.263       .  A
C345        O346   1.261       .  A
C345       C2549   1.436       .  S
O346       Cr351   1.989       .  S
O347       Cr351   1.990       .  S
O347        C348   1.260       .  A
C348       C2547   1.432       .  S
Cr349       O352   1.764       .  S
Cr350       O352   1.780       .  S
Cr351       O352   1.767       .  S
O353       Cr371   1.978       .  S
O353        C361   1.261       .  A
O354       Cr371   1.986       .  S
O354        C355   1.255       .  A
C355        O356   1.261       .  A
C355       C2536   1.442       .  S
O356       Cr372   2.010       .  S
O357       Cr372   2.011       .  S
O357        C358   1.266       .  A
C358        O359   1.259       .  A
C358       C2544   1.432       .  S
O359       Cr373   1.970       .  S
O360       Cr373   2.001       .  S
O360        C361   1.263       .  A
C361       C2539   1.426       .  S
O362       Cr371   1.986       .  S
O362        C370   1.257       .  A
O363       Cr371   1.959       .  S
O363        C364   1.258       .  A
C364        O365   1.271       .  A
C364       C2533   1.434       .  S
O365       Cr372   2.028       .  S
O366       Cr372   1.998       .  S
O366        C367   1.262       .  A
C367        O368   1.260       .  A
C367       C2541   1.438       .  S
O368       Cr373   1.987       .  S
O369       Cr373   1.998       .  S
O369        C370   1.260       .  A
C370       C2537   1.432       .  S
Cr371       O374   1.766       .  S
Cr372       O374   1.777       .  S
Cr373       O374   1.767       .  S
O375       Cr393   1.977       .  S
O375        C383   1.260       .  A
O376       Cr393   1.994       .  S
O376        C377   1.259       .  A
C377        O378   1.261       .  A
C377       C2546   1.441       .  S
O378       Cr394   2.003       .  S
O379       Cr394   2.018       .  S
O379        C380   1.266       .  A
C380        O381   1.258       .  A
C380       C2532   1.437       .  S
O381       Cr395   1.972       .  S
O382       Cr395   1.999       .  S
O382        C383   1.262       .  A
C383       C2568   1.426       .  S
O384       Cr393   1.994       .  S
O384        C392   1.260       .  A
O385       Cr393   1.965       .  S
O385        C386   1.257       .  A
C386        O387   1.270       .  A
C386       C2648   1.438       .  S
O387       Cr394   2.029       .  S
O388       Cr394   1.990       .  S
O388        C389   1.261       .  A
C389        O390   1.261       .  A
C389       C2543   1.430       .  S
O390       Cr395   1.987       .  S
O391       Cr395   1.994       .  S
O391        C392   1.260       .  A
C392       C2553   1.435       .  S
Cr393       O396   1.763       .  S
Cr394       O396   1.778       .  S
Cr395       O396   1.767       .  S
O397       Cr415   1.982       .  S
O397        C405   1.261       .  A
O398       Cr415   1.991       .  S
O398        C399   1.257       .  A
C399        O400   1.259       .  A
C399       C2521   1.444       .  S
O400       Cr416   2.003       .  S
O401       Cr416   2.023       .  S
O401        C402   1.269       .  A
C402        O403   1.260       .  A
C402       C2527   1.437       .  S
O403       Cr417   1.967       .  S
O404       Cr417   2.007       .  S
O404        C405   1.263       .  A
C405       C2538   1.434       .  S
O406       Cr415   1.988       .  S
O406        C414   1.259       .  A
O407       Cr415   1.957       .  S
O407        C408   1.256       .  A
C408        O409   1.274       .  A
C408       C2523   1.443       .  S
O409       Cr416   2.043       .  S
O410       Cr416   2.001       .  S
O410        C411   1.262       .  A
C411        O412   1.259       .  A
C411       C2529   1.440       .  S
O412       Cr417   1.988       .  S
O413       Cr417   1.992       .  S
O413        C414   1.260       .  A
C414       C2526   1.428       .  S
Cr415       O418   1.768       .  S
Cr416       O418   1.779       .  S
Cr417       O418   1.769       .  S
O419       Cr437   1.984       .  S
O419        C427   1.255       .  A
O420       Cr437   1.951       .  S
O420        C421   1.256       .  A
C421        O422   1.274       .  A
C421       C2662   1.431       .  S
O422       Cr438   2.040       .  S
O423       Cr438   2.000       .  S
O423        C424   1.264       .  A
C424        O425   1.263       .  A
C424       C2530   1.441       .  S
O425       Cr439   1.993       .  S
O426       Cr439   1.997       .  S
O426        C427   1.258       .  A
C427       C2681   1.431       .  S
O428       Cr437   1.965       .  S
O428        C436   1.258       .  A
O429       Cr437   1.982       .  S
O429        C430   1.253       .  A
C430        O431   1.263       .  A
C430       C2666   1.443       .  S
O431       Cr438   2.020       .  S
O432       Cr438   2.024       .  S
O432        C433   1.268       .  A
C433        O434   1.257       .  A
C433       C2519   1.441       .  S
O434       Cr439   1.969       .  S
O435       Cr439   2.011       .  S
O435        C436   1.268       .  A
C436       C2562   1.423       .  S
Cr437       O440   1.763       .  S
Cr438       O440   1.775       .  S
Cr439       O440   1.764       .  S
O441       Cr459   1.980       .  S
O441        C449   1.259       .  A
O442       Cr459   1.986       .  S
O442        C443   1.256       .  A
C443        O444   1.263       .  A
C443       C2515   1.445       .  S
O444       Cr460   2.013       .  S
O445       Cr460   2.017       .  S
O445        C446   1.268       .  A
C446        O447   1.256       .  A
C446       C2686   1.423       .  S
O447       Cr461   1.955       .  S
O448       Cr461   2.005       .  S
O448        C449   1.262       .  A
C449       C2525   1.431       .  S
O450       Cr459   1.987       .  S
O450        C458   1.259       .  A
O451       Cr459   1.955       .  S
O451        C452   1.256       .  A
C452        O453   1.272       .  A
C452       C2517   1.435       .  S
O453       Cr460   2.035       .  S
O454       Cr460   2.013       .  S
O454        C455   1.266       .  A
C455        O456   1.259       .  A
C455       C2556   1.448       .  S
O456       Cr461   1.990       .  S
O457       Cr461   1.985       .  S
O457        C458   1.259       .  A
C458       C2540   1.424       .  S
Cr459       O462   1.763       .  S
Cr460       O462   1.776       .  S
Cr461       O462   1.766       .  S
O463       Cr481   1.966       .  S
O463        C471   1.257       .  A
O464       Cr481   1.989       .  S
O464        C465   1.256       .  A
C465        O466   1.261       .  A
C465       C2522   1.443       .  S
O466       Cr482   2.010       .  S
O467       Cr482   2.017       .  S
O467        C468   1.267       .  A
C468        O469   1.260       .  A
C468       C2512   1.439       .  S
O469       Cr483   1.975       .  S
O470       Cr483   2.017       .  S
O470        C471   1.267       .  A
C471       C2509   1.428       .  S
O472       Cr481   1.987       .  S
O472        C480   1.257       .  A
O473       Cr481   1.951       .  S
O473        C474   1.254       .  A
C474        O475   1.272       .  A
C474       C2534   1.432       .  S
O475       Cr482   2.037       .  S
O476       Cr482   1.999       .  S
O476        C477   1.264       .  A
C477        O478   1.265       .  A
C477       C2514   1.444       .  S
O478       Cr483   2.000       .  S
O479       Cr483   1.993       .  S
O479        C480   1.259       .  A
C480       C2507   1.429       .  S
Cr481       O484   1.765       .  S
Cr482       O484   1.775       .  S
Cr483       O484   1.765       .  S
O485       Cr503   1.999       .  S
O485        C493   1.262       .  A
O486       Cr503   1.961       .  S
O486        C487   1.257       .  A
C487        O488   1.274       .  A
C487       C2516   1.446       .  S
O488       Cr504   2.047       .  S
O489       Cr504   2.000       .  S
O489        C490   1.265       .  A
C490        O491   1.264       .  A
C490       C2501   1.442       .  S
O491       Cr505   1.998       .  S
O492       Cr505   1.988       .  S
O492        C493   1.259       .  A
C493       C2505   1.436       .  S
O494       Cr503   1.971       .  S
O494        C502   1.257       .  A
O495       Cr503   1.994       .  S
O495        C496   1.259       .  A
C496        O497   1.260       .  A
C496       C2524   1.444       .  S
O497       Cr504   2.006       .  S
O498       Cr504   2.026       .  S
O498        C499   1.268       .  A
C499        O500   1.256       .  A
C499       C2503   1.438       .  S
O500       Cr505   1.967       .  S
O501       Cr505   2.009       .  S
O501        C502   1.264       .  A
C502       C2510   1.429       .  S
Cr503       O506   1.764       .  S
Cr504       O506   1.778       .  S
Cr505       O506   1.767       .  S
O507       Cr525   2.001       .  S
O507        C515   1.263       .  A
O508       Cr525   1.961       .  S
O508        C509   1.257       .  A
C509        O510   1.276       .  A
C509       C2565   1.447       .  S
O510       Cr526   2.050       .  S
O511       Cr526   2.003       .  S
O511        C512   1.266       .  A
C512        O513   1.261       .  A
C512       C2499   1.437       .  S
O513       Cr527   1.986       .  S
O514       Cr527   1.982       .  S
O514        C515   1.257       .  A
C515       C2548   1.433       .  S
O516       Cr525   1.967       .  S
O516        C524   1.256       .  A
O517       Cr525   1.998       .  S
O517        C518   1.260       .  A
C518        O519   1.266       .  A
C518       C2552   1.456       .  S
O519       Cr526   2.021       .  S
O520       Cr526   2.037       .  S
O520        C521   1.270       .  A
C521        O522   1.255       .  A
C521       C2498   1.442       .  S
O522       Cr527   1.964       .  S
O523       Cr527   2.000       .  S
O523        C524   1.262       .  A
C524       C2650   1.420       .  S
Cr525       O528   1.764       .  S
Cr526       O528   1.774       .  S
Cr527       O528   1.768       .  S
O529       Cr547   1.970       .  S
O529        C537   1.256       .  A
O530       Cr547   1.994       .  S
O530        C531   1.259       .  A
C531        O532   1.260       .  A
C531       C2491   1.442       .  S
O532       Cr548   2.003       .  S
O533       Cr548   2.026       .  S
O533        C534   1.268       .  A
C534        O535   1.256       .  A
C534       C2550   1.438       .  S
O535       Cr549   1.967       .  S
O536       Cr549   2.008       .  S
O536        C537   1.264       .  A
C537       C2495   1.428       .  S
O538       Cr547   1.999       .  S
O538        C546   1.262       .  A
O539       Cr547   1.962       .  S
O539        C540   1.257       .  A
C540        O541   1.274       .  A
C540       C2489   1.446       .  S
O541       Cr548   2.047       .  S
O542       Cr548   1.998       .  S
O542        C543   1.265       .  A
C543        O544   1.264       .  A
C543       C2626   1.440       .  S
O544       Cr549   1.997       .  S
O545       Cr549   1.987       .  S
O545        C546   1.259       .  A
C546       C2493   1.436       .  S
Cr547       O550   1.764       .  S
Cr548       O550   1.778       .  S
Cr549       O550   1.766       .  S
O551       Cr569   1.968       .  S
O551        C559   1.256       .  A
O552       Cr569   1.999       .  S
O552        C553   1.260       .  A
C553        O554   1.265       .  A
C553       C2485   1.455       .  S
O554       Cr570   2.019       .  S
O555       Cr570   2.036       .  S
O555        C556   1.270       .  A
C556        O557   1.254       .  A
C556       C2488   1.441       .  S
O557       Cr571   1.962       .  S
O558       Cr571   1.998       .  S
O558        C559   1.262       .  A
C559       C2481   1.421       .  S
O560       Cr569   2.002       .  S
O560        C568   1.263       .  A
O561       Cr569   1.961       .  S
O561        C562   1.257       .  A
C562        O563   1.275       .  A
C562       C2479   1.447       .  S
O563       Cr570   2.049       .  S
O564       Cr570   2.002       .  S
O564        C565   1.265       .  A
C565        O566   1.261       .  A
C565       C2511   1.436       .  S
O566       Cr571   1.986       .  S
O567       Cr571   1.981       .  S
O567        C568   1.257       .  A
C568       C2484   1.433       .  S
Cr569       O572   1.764       .  S
Cr570       O572   1.774       .  S
Cr571       O572   1.768       .  S
O573       Cr591   1.995       .  S
O573        C581   1.261       .  A
O574       Cr591   1.966       .  S
O574        C575   1.257       .  A
C575        O576   1.270       .  A
C575       C2473   1.439       .  S
O576       Cr592   2.030       .  S
O577       Cr592   1.990       .  S
O577        C578   1.261       .  A
C578        O579   1.261       .  A
C578       C2467   1.430       .  S
O579       Cr593   1.986       .  S
O580       Cr593   1.994       .  S
O580        C581   1.260       .  A
C581       C2472   1.436       .  S
O582       Cr591   1.978       .  S
O582        C590   1.260       .  A
O583       Cr591   1.993       .  S
O583        C584   1.259       .  A
C584        O585   1.261       .  A
C584       C2475   1.440       .  S
O585       Cr592   2.001       .  S
O586       Cr592   2.019       .  S
O586        C587   1.267       .  A
C587        O588   1.258       .  A
C587       C2469   1.437       .  S
O588       Cr593   1.972       .  S
O589       Cr593   1.998       .  S
O589        C590   1.262       .  A
C590       C2478   1.427       .  S
Cr591       O594   1.764       .  S
Cr592       O594   1.778       .  S
Cr593       O594   1.767       .  S
O595       Cr613   1.964       .  S
O595        C603   1.256       .  A
O596       Cr613   1.997       .  S
O596        C597   1.258       .  A
C597        O598   1.264       .  A
C597       C2486   1.455       .  S
O598       Cr614   2.021       .  S
O599       Cr614   2.028       .  S
O599        C600   1.268       .  A
C600        O601   1.255       .  A
C600       C2461   1.441       .  S
O601       Cr615   1.966       .  S
O602       Cr615   2.005       .  S
O602        C603   1.264       .  A
C603       C2465   1.421       .  S
O604       Cr613   2.000   1_554  S
O604        C612   1.261       .  A
O605       Cr613   1.959       .  S
O605        C606   1.258       .  A
C606        O607   1.276       .  A
C606       C2463   1.445       .  S
O607       Cr614   2.049       .  S
O608       Cr614   2.006       .  S
O608        C609   1.267   1_556  A
C609        O610   1.264       .  A
C609       C2460   1.447       .  S
O610       Cr615   1.997   1_554  S
O611       Cr615   1.989   1_554  S
O611        C612   1.258       .  A
C612       C2471   1.437       .  S
Cr613       O616   1.767       .  S
Cr614       O616   1.776       .  S
Cr615       O616   1.770       .  S
O617       Cr635   1.987   1_455  S
O617        C625   1.259       .  A
O618       Cr635   1.955   1_455  S
O618        C619   1.256       .  A
C619        O620   1.272   1_455  A
C619       C2456   1.436       .  S
O620       Cr636   2.035       .  S
O621       Cr636   2.011   1_455  S
O621        C622   1.266       .  A
C622        O623   1.259       .  A
C622       C2459   1.446       .  S
O623       Cr637   1.989       .  S
O624       Cr637   1.987       .  S
O624        C625   1.259       .  A
C625       C2451   1.425       .  S
O626       Cr635   1.979       .  S
O626        C634   1.259   1_655  A
O627       Cr635   1.986       .  S
O627        C628   1.256       .  A
C628        O629   1.263       .  A
C628       C2490   1.445       .  S
O629       Cr636   2.013       .  S
O630       Cr636   2.019       .  S
O630        C631   1.268       .  A
C631        O632   1.257       .  A
C631       C2454   1.427       .  S
O632       Cr637   1.958   1_655  S
O633       Cr637   2.004       .  S
O633        C634   1.263       .  A
C634       C2457   1.429       .  S
Cr635       O638   1.763   1_655  S
Cr636       O638   1.776   1_655  S
Cr637       O638   1.766       .  S
O639       Cr657   1.985       .  S
O639        C647   1.257       .  A
O640       Cr657   1.959       .  S
O640        C641   1.258       .  A
C641        O642   1.271       .  A
C641       C2448   1.434       .  S
O642       Cr658   2.029       .  S
O643       Cr658   2.000       .  S
O643        C644   1.263       .  A
C644        O645   1.260       .  A
C644       C2443   1.440       .  S
O645       Cr659   1.988       .  S
O646       Cr659   1.999       .  S
O646        C647   1.261       .  A
C647       C2450   1.432       .  S
O648       Cr657   1.979       .  S
O648        C656   1.261       .  A
O649       Cr657   1.985       .  S
O649        C650   1.255       .  A
C650        O651   1.261       .  A
C650       C2445   1.443       .  S
O651       Cr658   2.011       .  S
O652       Cr658   2.010       .  S
O652        C653   1.265       .  A
C653        O654   1.259       .  A
C653       C2468   1.432       .  S
O654       Cr659   1.970       .  S
O655       Cr659   2.002       .  S
O655        C656   1.264       .  A
C656       C2452   1.427       .  S
Cr657       O660   1.766       .  S
Cr658       O660   1.778       .  S
Cr659       O660   1.767       .  S
O661       Cr679   1.987       .  S
O661        C669   1.257       .  A
O662       Cr679   1.951       .  S
O662        C663   1.254       .  A
C663        O664   1.272       .  A
C663       C2447   1.432       .  S
O664       Cr680   2.037       .  S
O665       Cr680   1.996       .  S
O665        C666   1.263       .  A
C666        O667   1.264       .  A
C666       C2441   1.440       .  S
O667       Cr681   1.997   1_455  S
O668       Cr681   1.994   1_455  S
O668        C669   1.259       .  A
C669       C2440   1.430       .  S
O670       Cr679   1.966   1_655  S
O670        C678   1.257       .  A
O671       Cr679   1.988       .  S
O671        C672   1.256       .  A
C672        O673   1.261       .  A
C672       C2437   1.441       .  S
O673       Cr680   2.008       .  S
O674       Cr680   2.018       .  S
O674        C675   1.267   1_455  A
C675        O676   1.260       .  A
C675       C2500   1.440       .  S
O676       Cr681   1.975       .  S
O677       Cr681   2.015       .  S
O677        C678   1.267       .  A
C678       C2496   1.427       .  S
Cr679       O682   1.764       .  S
Cr680       O682   1.775       .  S
Cr681       O682   1.764   1_655  S
O683       Cr701   1.992       .  S
O683        C691   1.261       .  A
O684       Cr701   1.963       .  S
O684        C685   1.257       .  A
C685        O686   1.271   1_556  A
C685       C2431   1.439       .  S
O686       Cr702   2.032       .  S
O687       Cr702   1.996   1_556  S
O687        C688   1.263       .  A
C688        O689   1.261       .  A
C688       C2504   1.437       .  S
O689       Cr703   1.990       .  S
O690       Cr703   1.990       .  S
O690        C691   1.260       .  A
C691       C2483   1.431       .  S
O692       Cr701   1.984       .  S
O692        C700   1.261       .  A
O693       Cr701   1.993   1_554  S
O693        C694   1.259       .  A
C694        O695   1.259       .  A
C694       C2476   1.441       .  S
O695       Cr702   1.999       .  S
O696       Cr702   2.016       .  S
O696        C697   1.266       .  A
C697        O698   1.258   1_554  A
C697       C2435   1.430       .  S
O698       Cr703   1.965       .  S
O699       Cr703   2.004       .  S
O699        C700   1.262       .  A
C700       C2434   1.434       .  S
Cr701       O704   1.765       .  S
Cr702       O704   1.780   1_554  S
Cr703       O704   1.767       .  S
O705       Cr723   1.973       .  S
O705        C713   1.257       .  A
O706       Cr723   1.991       .  S
O706        C707   1.258       .  A
C707        O708   1.262       .  A
C707       C2419   1.443       .  S
O708       Cr724   2.009       .  S
O709       Cr724   2.016       .  S
O709        C710   1.266       .  A
C710        O711   1.257       .  A
C710       C2429   1.431       .  S
O711       Cr725   1.967   1_455  S
O712       Cr725   2.011       .  S
O712        C713   1.264   1_655  A
C713       C2424   1.430       .  S
O714       Cr723   1.991   1_655  S
O714        C722   1.260       .  A
O715       Cr723   1.958       .  S
O715        C716   1.255       .  A
C716        O717   1.272       .  A
C716       C2425   1.438       .  S
O717       Cr724   2.038       .  S
O718       Cr724   2.008       .  S
O718        C719   1.268   1_455  A
C719        O720   1.264       .  A
C719       C2427   1.452       .  S
O720       Cr725   2.003       .  S
O721       Cr725   1.986       .  S
O721        C722   1.259       .  A
C722       C2421   1.429       .  S
Cr723       O726   1.766       .  S
Cr724       O726   1.778       .  S
Cr725       O726   1.768   1_655  S
O727       Cr745   1.962       .  S
O727        C735   1.256       .  A
O728       Cr745   1.994       .  S
O728        C729   1.258       .  A
C729        O730   1.264       .  A
C729       C2590   1.448       .  S
O730       Cr746   2.015   1_556  S
O731       Cr746   2.050   1_556  S
O731        C732   1.274       .  A
C732        O733   1.254       .  A
C732       C2428   1.451       .  S
O733       Cr747   1.964       .  S
O734       Cr747   2.002       .  S
O734        C735   1.264       .  A
C735       C2640   1.416       .  S
O736       Cr745   1.999       .  S
O736        C744   1.261       .  A
O737       Cr745   1.962   1_554  S
O737        C738   1.258       .  A
C738        O739   1.279       .  A
C738       C2598   1.451       .  S
O739       Cr746   2.058       .  S
O740       Cr746   1.992       .  S
O740        C741   1.262       .  A
C741        O742   1.263   1_554  A
C741       C2417   1.434       .  S
O742       Cr747   1.990       .  S
O743       Cr747   1.986       .  S
O743        C744   1.257       .  A
C744       C2577   1.434       .  S
Cr745       O748   1.763       .  S
Cr746       O748   1.772   1_554  S
Cr747       O748   1.768       .  S
O749       Cr767   1.982   1_654  S
O749        C757   1.260   1_655  A
O750       Cr767   1.994   1_655  S
O750        C751   1.259       .  A
C751        O752   1.260       .  A
C751       C2413   1.444       .  S
O752       Cr768   2.004       .  S
O753       Cr768   2.007       .  S
O753        C754   1.263   1_556  A
C754        O755   1.257       .  A
C754       C2453   1.428       .  S
O755       Cr769   1.968   1_655  S
O756       Cr769   2.002       .  S
O756        C757   1.262       .  A
C757       C2415   1.432       .  S
O758       Cr767   1.995       .  S
O758        C766   1.261       .  A
O759       Cr767   1.968       .  S
O759        C760   1.259       .  A
C760        O761   1.269   1_455  A
C760       C2412   1.440       .  S
O761       Cr768   2.026       .  S
O762       Cr768   1.998   1_455  S
O762        C763   1.264       .  A
C763        O764   1.263       .  A
C763       C2462   1.440       .  S
O764       Cr769   1.994   1_556  S
O765       Cr769   1.991   1_556  S
O765        C766   1.261       .  A
C766       C2410   1.435       .  S
Cr767       O770   1.767       .  S
Cr768       O770   1.781   1_655  S
Cr769       O770   1.769   1_554  S
O771       Cr789   1.972       .  S
O771        C779   1.257       .  A
O772       Cr789   1.996   1_554  S
O772        C773   1.260   1_554  A
C773        O774   1.262       .  A
C773       C2414   1.444       .  S
O774       Cr790   2.005   1_556  S
O775       Cr790   2.010   1_556  S
O775        C776   1.263       .  A
C776        O777   1.255       .  A
C776       C2658   1.426       .  S
O777       Cr791   1.964       .  S
O778       Cr791   2.013       .  S
O778        C779   1.265       .  A
C779       C2403   1.431       .  S
O780       Cr789   1.996       .  S
O780        C788   1.262       .  A
O781       Cr789   1.963   1_554  S
O781        C782   1.257       .  A
C782        O783   1.269       .  A
C782       C2407   1.435       .  S
O783       Cr790   2.026       .  S
O784       Cr790   1.998       .  S
O784        C785   1.264       .  A
C785        O786   1.266   1_554  A
C785       C2580   1.445       .  S
O786       Cr791   2.005       .  S
O787       Cr791   1.984       .  S
O787        C788   1.258       .  A
C788       C2405   1.432       .  S
Cr789       O792   1.762       .  S
Cr790       O792   1.777   1_554  S
Cr791       O792   1.765       .  S
O793       Cr811   1.980       .  S
O793        C801   1.255       .  A
O794       Cr811   1.953       .  S
O794        C795   1.255       .  A
C795        O796   1.274       .  A
C795       C2400   1.435       .  S
O796       Cr812   2.043       .  S
O797       Cr812   1.995       .  S
O797        C798   1.264       .  A
C798        O799   1.265       .  A
C798       C2397   1.442       .  S
O799       Cr813   2.000   1_455  S
O800       Cr813   1.994   1_455  S
O800        C801   1.259       .  A
C801       C2402   1.426       .  S
O802       Cr811   1.969   1_655  S
O802        C810   1.258       .  A
O803       Cr811   1.982       .  S
O803        C804   1.254       .  A
C804        O805   1.260       .  A
C804       C2411   1.436       .  S
O805       Cr812   2.009       .  S
O806       Cr812   2.020       .  S
O806        C807   1.267   1_455  A
C807        O808   1.257       .  A
C807       C2395   1.435       .  S
O808       Cr813   1.966       .  S
O809       Cr813   2.019       .  S
O809        C810   1.268       .  A
C810       C2404   1.431       .  S
Cr811       O814   1.763       .  S
Cr812       O814   1.777       .  S
Cr813       O814   1.764   1_655  S
O815       Cr833   1.989       .  S
O815        C823   1.259       .  A
O816       Cr833   1.957       .  S
O816        C817   1.256       .  A
C817        O818   1.276       .  A
C817       C2392   1.445       .  S
O818       Cr834   2.050       .  S
O819       Cr834   1.998       .  S
O819        C820   1.264       .  A
C820        O821   1.261       .  A
C820       C2470   1.435       .  S
O821       Cr835   1.986       .  S
O822       Cr835   1.988       .  S
O822        C823   1.258       .  A
C823       C2388   1.427       .  S
O824       Cr833   1.968       .  S
O824        C832   1.257       .  A
O825       Cr833   1.987       .  S
O825        C826   1.257       .  A
C826        O827   1.262       .  A
C826       C2390   1.443       .  S
O827       Cr834   2.011       .  S
O828       Cr834   2.031       .  S
O828        C829   1.270       .  A
C829        O830   1.257       .  A
C829       C2444   1.441       .  S
O830       Cr835   1.967       .  S
O831       Cr835   2.001       .  S
O831        C832   1.263       .  A
C832       C2393   1.420       .  S
Cr833       O836   1.763       .  S
Cr834       O836   1.773       .  S
Cr835       O836   1.766       .  S
O837       Cr855   1.993       .  S
O837        C845   1.259       .  A
O838       Cr855   1.964       .  S
O838        C839   1.258       .  A
C839        O840   1.271       .  A
C839       C2383   1.440       .  S
O840       Cr856   2.034       .  S
O841       Cr856   1.994       .  S
O841        C842   1.262       .  A
C842        O843   1.262       .  A
C842       C2378   1.435       .  S
O843       Cr857   1.990       .  S
O844       Cr857   1.996       .  S
O844        C845   1.261       .  A
C845       C2381   1.437       .  S
O846       Cr855   1.976       .  S
O846        C854   1.260       .  A
O847       Cr855   1.990       .  S
O847        C848   1.258       .  A
C848        O849   1.261       .  A
C848       C2386   1.441       .  S
O849       Cr856   2.006       .  S
O850       Cr856   2.021       .  S
O850        C851   1.267       .  A
C851        O852   1.258       .  A
C851       C2379   1.441       .  S
O852       Cr857   1.974       .  S
O853       Cr857   2.003       .  S
O853        C854   1.263       .  A
C854       C2387   1.428       .  S
Cr855       O858   1.766       .  S
Cr856       O858   1.780       .  S
Cr857       O858   1.769       .  S
O859       Cr877   1.961       .  S
O859        C867   1.255       .  A
O860       Cr877   2.002       .  S
O860        C861   1.260       .  A
C861        O862   1.264       .  A
C861       C2375   1.456       .  S
O862       Cr878   2.018       .  S
O863       Cr878   2.015       .  S
O863        C864   1.265       .  A
C864        O865   1.256       .  A
C864       C2369   1.430       .  S
O865       Cr879   1.964       .  S
O866       Cr879   2.007       .  S
O866        C867   1.265       .  A
C867       C2394   1.420       .  S
O868       Cr877   2.003       .  S
O868        C876   1.262       .  A
O869       Cr877   1.953       .  S
O869        C870   1.255       .  A
C870        O871   1.272       .  A
C870       C2373   1.432       .  S
O871       Cr878   2.034       .  S
O872       Cr878   2.001       .  S
O872        C873   1.266       .  A
C873        O874   1.264       .  A
C873       C2371   1.442       .  S
O874       Cr879   1.995       .  S
O875       Cr879   1.990       .  S
O875        C876   1.258       .  A
C876       C2382   1.439       .  S
Cr877       O880   1.763       .  S
Cr878       O880   1.777       .  S
Cr879       O880   1.766       .  S
O881       Cr899   1.986   1_554  S
O881        C889   1.258       .  A
O882       Cr899   1.952       .  S
O882        C883   1.255       .  A
C883        O884   1.274       .  A
C883       C2432   1.437       .  S
O884       Cr900   2.044       .  S
O885       Cr900   2.004       .  S
O885        C886   1.266   1_556  A
C886        O887   1.261       .  A
C886       C2380   1.439       .  S
O887       Cr901   1.987   1_554  S
O888       Cr901   1.988   1_554  S
O888        C889   1.258       .  A
C889       C2477   1.425       .  S
O890       Cr899   1.966       .  S
O890        C898   1.257       .  A
O891       Cr899   1.987       .  S
O891        C892   1.256       .  A
C892        O893   1.263       .  A
C892       C2480   1.446       .  S
O893       Cr900   2.018       .  S
O894       Cr900   2.021       .  S
O894        C895   1.268       .  A
C895        O896   1.257       .  A
C895       C2367   1.433       .  S
O896       Cr901   1.965       .  S
O897       Cr901   2.005       .  S
O897        C898   1.264       .  A
C898       C2466   1.420       .  S
Cr899       O902   1.762       .  S
Cr900       O902   1.772       .  S
Cr901       O902   1.764       .  S
O903       Cr921   1.998       .  S
O903        C911   1.261       .  A
O904       Cr921   1.963       .  S
O904        C905   1.258       .  A
C905        O906   1.271       .  A
C905       C2399   1.437       .  S
O906       Cr922   2.033       .  S
O907       Cr922   1.986       .  S
O907        C908   1.262       .  A
C908        O909   1.265       .  A
C908       C2368   1.434       .  S
O909       Cr923   1.998   1_556  S
O910       Cr923   1.989   1_556  S
O910        C911   1.258       .  A
C911       C2409   1.436       .  S
O912       Cr921   1.967   1_554  S
O912        C920   1.257       .  A
O913       Cr921   1.993       .  S
O913        C914   1.259       .  A
C914        O915   1.261       .  A
C914       C2365   1.440       .  S
O915       Cr922   2.004       .  S
O916       Cr922   2.020       .  S
O916        C917   1.266   1_556  A
C917        O918   1.256       .  A
C917       C2377   1.436       .  S
O918       Cr923   1.969       .  S
O919       Cr923   2.006       .  S
O919        C920   1.265       .  A
C920       C2363   1.423       .  S
Cr921       O924   1.762       .  S
Cr922       O924   1.776       .  S
Cr923       O924   1.766   1_554  S
O925       Cr943   1.965   1_455  S
O925        C933   1.258       .  A
O926       Cr943   1.981       .  S
O926        C927   1.253       .  A
C927        O928   1.264       .  A
C927       C2362   1.444       .  S
O928       Cr944   2.023       .  S
O929       Cr944   2.026   1_455  S
O929        C930   1.268       .  A
C930        O931   1.257       .  A
C930       C2372   1.442       .  S
O931       Cr945   1.969       .  S
O932       Cr945   2.011       .  S
O932        C933   1.268       .  A
C933       C2364   1.422       .  S
O934       Cr943   1.982   1_455  S
O934        C942   1.255       .  A
O935       Cr943   1.952       .  S
O935        C936   1.256       .  A
C936        O937   1.275       .  A
C936       C2408   1.432       .  S
O937       Cr944   2.042       .  S
O938       Cr944   2.001       .  S
O938        C939   1.265       .  A
C939        O940   1.263   1_655  A
C939       C2359   1.442       .  S
O940       Cr945   1.992       .  S
O941       Cr945   1.996       .  S
O941        C942   1.258       .  A
C942       C2416   1.429       .  S
Cr943       O946   1.764   1_655  S
Cr944       O946   1.774   1_655  S
Cr945       O946   1.764       .  S
O947       Cr965   1.989       .  S
O947        C955   1.260       .  A
O948       Cr965   1.957   1_655  S
O948        C949   1.256       .  A
C949        O950   1.273       .  A
C949       C2492   1.441       .  S
O950       Cr966   2.038       .  S
O951       Cr966   2.001       .  S
O951        C952   1.263       .  A
C952        O953   1.260   1_655  A
C952       C2360   1.441       .  S
O953       Cr967   1.989       .  S
O954       Cr967   1.989       .  S
O954        C955   1.260       .  A
C955       C2458   1.427       .  S
O956       Cr965   1.983       .  S
O956        C964   1.260       .  A
O957       Cr965   1.991   1_655  S
O957        C958   1.258       .  A
C958        O959   1.259       .  A
C958       C2438   1.442   1_655  S
O959       Cr966   2.001       .  S
O960       Cr966   2.019   1_455  S
O960        C961   1.268       .  A
C961        O962   1.259       .  A
C961       C2370   1.431       .  S
O962       Cr967   1.964       .  S
O963       Cr967   2.006       .  S
O963        C964   1.263       .  A
C964       C2449   1.435       .  S
Cr965       O968   1.767       .  S
Cr966       O968   1.779   1_655  S
Cr967       O968   1.768       .  S
O969       Cr987   1.993   1_565  S
O969        C977   1.260       .  A
O970       Cr987   1.955       .  S
O970        C971   1.256       .  A
C971        O972   1.273       .  A
C971       C2354   1.438       .  S
O972       Cr988   2.036       .  S
O973       Cr988   2.008       .  S
O973        C974   1.265   1_545  A
C974        O975   1.258       .  A
C974       C2355   1.441       .  S
O975       Cr989   1.983       .  S
O976       Cr989   1.988       .  S
O976        C977   1.259       .  A
C977       C2350   1.429       .  S
O978       Cr987   1.979       .  S
O978        C986   1.259       .  A
O979       Cr987   1.990       .  S
O979        C980   1.257       .  A
C980        O981   1.262       .  A
C980       C2347   1.448       .  S
O981       Cr988   2.012       .  S
O982       Cr988   2.020       .  S
O982        C983   1.268       .  A
C983        O984   1.258       .  A
C983       C2357   1.431       .  S
O984       Cr989   1.962   1_545  S
O985       Cr989   1.997       .  S
O985        C986   1.261   1_565  A
C986       C2351   1.425       .  S
Cr987       O990   1.766       .  S
Cr988       O990   1.776       .  S
Cr989       O990   1.767   1_565  S
O991      Cr1009   1.986       .  S
O991        C999   1.256       .  A
O992      Cr1009   1.948   1_554  S
O992        C993   1.255       .  A
C993        O994   1.276       .  A
C993       C2474   1.436       .  S
O994      Cr1010   2.048       .  S
O995      Cr1010   2.000       .  S
O995        C996   1.264       .  A
C996        O997   1.263   1_554  A
C996       C2345   1.445       .  S
O997      Cr1011   1.996       .  S
O998      Cr1011   1.999       .  S
O998        C999   1.260       .  A
C999       C2433   1.432       .  S
O1000     Cr1009   1.961       .  S
O1000      C1008   1.257       .  A
O1001     Cr1009   1.986       .  S
O1001      C1002   1.254       .  A
C1002      O1003   1.261       .  A
C1002      C2464   1.445       .  S
O1003     Cr1010   2.015   1_556  S
O1004     Cr1010   2.026   1_556  S
O1004      C1005   1.269       .  A
C1005      O1006   1.259       .  A
C1005      C2356   1.444       .  S
O1006     Cr1011   1.973       .  S
O1007     Cr1011   2.011       .  S
O1007      C1008   1.267       .  A
C1008      C2482   1.419       .  S
Cr1009     O1012   1.765       .  S
Cr1010     O1012   1.774   1_554  S
Cr1011     O1012   1.766       .  S
O1013     Cr1031   1.974       .  S
O1013      C1021   1.260       .  A
O1014     Cr1031   1.988       .  S
O1014      C1015   1.258       .  A
C1015      O1016   1.261       .  A
C1015      C2343   1.437       .  S
O1016     Cr1032   2.002       .  S
O1017     Cr1032   2.018       .  S
O1017      C1018   1.266       .  A
C1018      O1019   1.259       .  A
C1018      C2572   1.439       .  S
O1019     Cr1033   1.974       .  S
O1020     Cr1033   2.004       .  S
O1020      C1021   1.264       .  A
C1021      C2342   1.428       .  S
O1022     Cr1031   1.991       .  S
O1022      C1030   1.258       .  A
O1023     Cr1031   1.962       .  S
O1023      C1024   1.257       .  A
C1024      O1025   1.270       .  A
C1024      C2337   1.433       .  S
O1025     Cr1032   2.027       .  S
O1026     Cr1032   1.986       .  S
O1026      C1027   1.260       .  A
C1027      O1028   1.262       .  A
C1027      C2557   1.430       .  S
O1028     Cr1033   1.990       .  S
O1029     Cr1033   1.998       .  S
O1029      C1030   1.260       .  A
C1030      C2340   1.437       .  S
Cr1031     O1034   1.763       .  S
Cr1032     O1034   1.779       .  S
Cr1033     O1034   1.767       .  S
O1035     Cr1053   1.966       .  S
O1035      C1043   1.256       .  A
O1036     Cr1053   1.991       .  S
O1036      C1037   1.258       .  A
C1037      O1038   1.261       .  A
C1037      C2333   1.443       .  S
O1038     Cr1054   2.007       .  S
O1039     Cr1054   2.031       .  S
O1039      C1040   1.270       .  A
C1040      O1041   1.257       .  A
C1040      C2542   1.439       .  S
O1041     Cr1055   1.966       .  S
O1042     Cr1055   2.002       .  S
O1042      C1043   1.263       .  A
C1043      C2335   1.419       .  S
O1044     Cr1053   1.992       .  S
O1044      C1052   1.260       .  A
O1045     Cr1053   1.954       .  S
O1045      C1046   1.255       .  A
C1046      O1047   1.276       .  A
C1046      C2331   1.444       .  S
O1047     Cr1054   2.050       .  S
O1048     Cr1054   1.997       .  S
O1048      C1049   1.263       .  A
C1049      O1050   1.261       .  A
C1049      C2531   1.435       .  S
O1050     Cr1055   1.987       .  S
O1051     Cr1055   1.985       .  S
O1051      C1052   1.258       .  A
C1052      C2341   1.427       .  S
Cr1053     O1056   1.762       .  S
Cr1054     O1056   1.772       .  S
Cr1055     O1056   1.765       .  S
O1057     Cr1075   2.005       .  S
O1057      C1065   1.263       .  A
O1058     Cr1075   1.953       .  S
O1058      C1059   1.255       .  A
C1059      O1060   1.275       .  A
C1059      C2327   1.440       .  S
O1060     Cr1076   2.045       .  S
O1061     Cr1076   2.001       .  S
O1061      C1062   1.266       .  A
C1062      O1063   1.263       .  A
C1062      C2520   1.440       .  S
O1063     Cr1077   1.992       .  S
O1064     Cr1077   1.988       .  S
O1064      C1065   1.258       .  A
C1065      C2339   1.439       .  S
O1066     Cr1075   1.962       .  S
O1066      C1074   1.255       .  A
O1067     Cr1075   2.002       .  S
O1067      C1068   1.260       .  A
C1068      O1069   1.264       .  A
C1068      C2329   1.457       .  S
O1069     Cr1076   2.018       .  S
O1070     Cr1076   2.025       .  S
O1070      C1071   1.267       .  A
C1071      O1072   1.255       .  A
C1071      C2528   1.436       .  S
O1072     Cr1077   1.963       .  S
O1073     Cr1077   2.005       .  S
O1073      C1074   1.264       .  A
C1074      C2336   1.419       .  S
Cr1075     O1078   1.765       .  S
Cr1076     O1078   1.776       .  S
Cr1077     O1078   1.767       .  S
O1079     Cr1097   1.978       .  S
O1079      C1087   1.260       .  A
O1080     Cr1097   1.991   1_565  S
O1080      C1081   1.257       .  A
C1081      O1082   1.260   1_565  A
C1081      C2321   1.445   1_565  S
O1082     Cr1098   2.007   1_545  S
O1083     Cr1098   2.016   1_545  S
O1083      C1084   1.267       .  A
C1084      O1085   1.260       .  A
C1084      C2587   1.437       .  S
O1085     Cr1099   1.972   1_556  S
O1086     Cr1099   2.004       .  S
O1086      C1087   1.264   1_554  A
C1087      C2325   1.429       .  S
O1088     Cr1097   1.988   1_554  S
O1088      C1096   1.258       .  A
O1089     Cr1097   1.957   1_565  S
O1089      C1090   1.256       .  A
C1090      O1091   1.271       .  A
C1090      C2323   1.434       .  S
O1091     Cr1098   2.030       .  S
O1092     Cr1098   2.000       .  S
O1092      C1093   1.262   1_556  A
C1093      O1094   1.260   1_565  A
C1093      C2616   1.440       .  S
O1094     Cr1099   1.988       .  S
O1095     Cr1099   1.997       .  S
O1095      C1096   1.261       .  A
C1096      C2319   1.432       .  S
Cr1097     O1100   1.767       .  S
Cr1098     O1100   1.778   1_565  S
Cr1099     O1100   1.768   1_554  S
O1101     Cr1119   1.977   1_554  S
O1101      C1109   1.260   1_554  A
O1102     Cr1119   1.991   1_554  S
O1102      C1103   1.256       .  A
C1103      O1104   1.262       .  A
C1103      C2313   1.449       .  S
O1104     Cr1120   2.015       .  S
O1105     Cr1120   2.017       .  S
O1105      C1106   1.267       .  A
C1106      O1107   1.258   1_554  A
C1106      C2436   1.430       .  S
O1107     Cr1121   1.962       .  S
O1108     Cr1121   2.004       .  S
O1108      C1109   1.264       .  A
C1109      C2318   1.428       .  S
O1110     Cr1119   1.990       .  S
O1110      C1118   1.258       .  A
O1111     Cr1119   1.953       .  S
O1111      C1112   1.256       .  A
C1112      O1113   1.272   1_556  A
C1112      C2324   1.434       .  S
O1113     Cr1120   2.032       .  S
O1114     Cr1120   2.004   1_556  S
O1114      C1115   1.263       .  A
C1115      O1116   1.259       .  A
C1115      C2502   1.442       .  S
O1116     Cr1121   1.987       .  S
O1117     Cr1121   1.993       .  S
O1117      C1118   1.260       .  A
C1118      C2315   1.431       .  S
Cr1119     O1122   1.766       .  S
Cr1120     O1122   1.778   1_554  S
Cr1121     O1122   1.768       .  S
O1123     Cr1141   1.980   1_565  S
O1123      C1131   1.261       .  A
O1124     Cr1141   1.987       .  S
O1124      C1125   1.256       .  A
C1125      O1126   1.261       .  A
C1125      C2322   1.445       .  S
O1126     Cr1142   2.011       .  S
O1127     Cr1142   2.015       .  S
O1127      C1128   1.267   1_545  A
C1128      O1129   1.259       .  A
C1128      C2305   1.433       .  S
O1129     Cr1143   1.968       .  S
O1130     Cr1143   2.010       .  S
O1130      C1131   1.265       .  A
C1131      C2316   1.433       .  S
O1132     Cr1141   1.984       .  S
O1132      C1140   1.257       .  A
O1133     Cr1141   1.955       .  S
O1133      C1134   1.256       .  A
C1134      O1135   1.272       .  A
C1134      C2311   1.434       .  S
O1135     Cr1142   2.034       .  S
O1136     Cr1142   2.008       .  S
O1136      C1137   1.265       .  A
C1137      O1138   1.262       .  A
C1137      C2307   1.450       .  S
O1138     Cr1143   1.996   1_545  S
O1139     Cr1143   1.995   1_545  S
O1139      C1140   1.260       .  A
C1140      C2309   1.428       .  S
Cr1141     O1144   1.767       .  S
Cr1142     O1144   1.778       .  S
Cr1143     O1144   1.767   1_565  S
O1145     Cr1163   1.970       .  S
O1145      C1153   1.256       .  A
O1146     Cr1163   1.997       .  S
O1146      C1147   1.260       .  A
C1147      O1148   1.261       .  A
C1147      C2300   1.446       .  S
O1148     Cr1164   2.006       .  S
O1149     Cr1164   2.017       .  S
O1149      C1150   1.265       .  A
C1150      O1151   1.256       .  A
C1150      C2606   1.431       .  S
O1151     Cr1165   1.965       .  S
O1152     Cr1165   2.010       .  S
O1152      C1153   1.264       .  A
C1153      C2303   1.428       .  S
O1154     Cr1163   2.000       .  S
O1154      C1162   1.263       .  A
O1155     Cr1163   1.963       .  S
O1155      C1156   1.257       .  A
C1156      O1157   1.272       .  A
C1156      C2301   1.443       .  S
O1157     Cr1164   2.038       .  S
O1158     Cr1164   2.000       .  S
O1158      C1159   1.266       .  A
C1159      O1160   1.265       .  A
C1159      C2596   1.445       .  S
O1160     Cr1165   2.002       .  S
O1161     Cr1165   1.984       .  S
O1161      C1162   1.258       .  A
C1162      C2297   1.434       .  S
Cr1163     O1166   1.765       .  S
Cr1164     O1166   1.777       .  S
Cr1165     O1166   1.768       .  S
O1167     Cr1185   1.993       .  S
O1167      C1175   1.261       .  A
O1168     Cr1185   1.967       .  S
O1168      C1169   1.258       .  A
C1169      O1170   1.268       .  A
C1169      C2296   1.435       .  S
O1170     Cr1186   2.021       .  S
O1171     Cr1186   2.002       .  S
O1171      C1172   1.265       .  A
C1172      O1173   1.263       .  A
C1172      C2289   1.446       .  S
O1173     Cr1187   1.999       .  S
O1174     Cr1187   1.990       .  S
O1174      C1175   1.260       .  A
C1175      C2298   1.433       .  S
O1176     Cr1185   1.983       .  S
O1176      C1184   1.260       .  A
O1177     Cr1185   1.993       .  S
O1177      C1178   1.259       .  A
C1178      O1179   1.261       .  A
C1178      C2293   1.443       .  S
O1179     Cr1186   2.005       .  S
O1180     Cr1186   2.005       .  S
O1180      C1181   1.263       .  A
C1181      O1182   1.257       .  A
C1181      C2287   1.425       .  S
O1182     Cr1187   1.966       .  S
O1183     Cr1187   2.007       .  S
O1183      C1184   1.263       .  A
C1184      C2292   1.435       .  S
Cr1185     O1188   1.766       .  S
Cr1186     O1188   1.780       .  S
Cr1187     O1188   1.769       .  S
O1189     Cr1207   1.986       .  S
O1189      C1197   1.257       .  A
O1190     Cr1207   1.949       .  S
O1190      C1191   1.254       .  A
C1191      O1192   1.275       .  A
C1191      C2284   1.436       .  S
O1192     Cr1208   2.046       .  S
O1193     Cr1208   2.005       .  S
O1193      C1194   1.265       .  A
C1194      O1195   1.264       .  A
C1194      C2280   1.447       .  S
O1195     Cr1209   1.997       .  S
O1196     Cr1209   1.998       .  S
O1196      C1197   1.260       .  A
C1197      C2291   1.432       .  S
O1198     Cr1207   1.967       .  S
O1198      C1206   1.258       .  A
O1199     Cr1207   1.987       .  S
O1199      C1200   1.255       .  A
C1200      O1201   1.262       .  A
C1200      C2285   1.446       .  S
O1201     Cr1208   2.016       .  S
O1202     Cr1208   2.024       .  S
O1202      C1203   1.268       .  A
C1203      O1204   1.259       .  A
C1203      C2281   1.441       .  S
O1204     Cr1209   1.972       .  S
O1205     Cr1209   2.014       .  S
O1205      C1206   1.267       .  A
C1206      C2304   1.427       .  S
Cr1207     O1210   1.765       .  S
Cr1208     O1210   1.777       .  S
Cr1209     O1210   1.765       .  S
O1211     Cr1229   1.988       .  S
O1211      C1219   1.258       .  A
O1212     Cr1229   1.954       .  S
O1212      C1213   1.256       .  A
C1213      O1214   1.274   1_545  A
C1213      C2582   1.438       .  S
O1214     Cr1230   2.041       .  S
O1215     Cr1230   2.004   1_545  S
O1215      C1216   1.264       .  A
C1216      O1217   1.258       .  A
C1216      C2282   1.439       .  S
O1217     Cr1231   1.982       .  S
O1218     Cr1231   1.993       .  S
O1218      C1219   1.260       .  A
C1219      C2611   1.430       .  S
O1220     Cr1229   1.979   1_565  S
O1220      C1228   1.260   1_565  A
O1221     Cr1229   1.988   1_565  S
O1221      C1222   1.256       .  A
C1222      O1223   1.262       .  A
C1222      C2630   1.446       .  S
O1223     Cr1230   2.012       .  S
O1224     Cr1230   2.024       .  S
O1224      C1225   1.269       .  A
C1225      O1226   1.258       .  A
C1225      C2278   1.435       .  S
O1226     Cr1231   1.964   1_565  S
O1227     Cr1231   2.001       .  S
O1227      C1228   1.263       .  A
C1228      C2621   1.428       .  S
Cr1229     O1232   1.766       .  S
Cr1230     O1232   1.778   1_565  S
Cr1231     O1232   1.767       .  S
O1233     Cr1251   1.982   1_565  S
O1233      C1241   1.261   1_565  A
O1234     Cr1251   1.988   1_565  S
O1234      C1235   1.256       .  A
C1235      O1236   1.263       .  A
C1235      C2314   1.449       .  S
O1236     Cr1252   2.016       .  S
O1237     Cr1252   2.022       .  S
O1237      C1238   1.269       .  A
C1238      O1239   1.259       .  A
C1238      C2277   1.435       .  S
O1239     Cr1253   1.965   1_565  S
O1240     Cr1253   2.007       .  S
O1240      C1241   1.264       .  A
C1241      C2320   1.433       .  S
O1242     Cr1251   1.985       .  S
O1242      C1250   1.258       .  A
O1243     Cr1251   1.956       .  S
O1243      C1244   1.256       .  A
C1244      O1245   1.274   1_545  A
C1244      C2275   1.439       .  S
O1245     Cr1252   2.041       .  S
O1246     Cr1252   2.010   1_545  S
O1246      C1247   1.265       .  A
C1247      O1248   1.259       .  A
C1247      C2279   1.445       .  S
O1248     Cr1253   1.986       .  S
O1249     Cr1253   1.994       .  S
O1249      C1250   1.260       .  A
C1250      C2274   1.429       .  S
Cr1251     O1254   1.768       .  S
Cr1252     O1254   1.779   1_565  S
Cr1253     O1254   1.769       .  S
O1255     Cr1273   1.982   1_554  S
O1255      C1263   1.260       .  A
O1256     Cr1273   1.989       .  S
O1256      C1257   1.257       .  A
C1257      O1258   1.262       .  A
C1257      C2271   1.448       .  S
O1258     Cr1274   2.015       .  S
O1259     Cr1274   2.011       .  S
O1259      C1260   1.266   1_556  A
C1260      O1261   1.257       .  A
C1260      C2288   1.424       .  S
O1261     Cr1275   1.959       .  S
O1262     Cr1275   2.005       .  S
O1262      C1263   1.263       .  A
C1263      C2273   1.431       .  S
O1264     Cr1273   1.988       .  S
O1264      C1272   1.259       .  A
O1265     Cr1273   1.958       .  S
O1265      C1266   1.257       .  A
C1266      O1267   1.271       .  A
C1266      C2312   1.435       .  S
O1267     Cr1274   2.029       .  S
O1268     Cr1274   2.011       .  S
O1268      C1269   1.265       .  A
C1269      O1270   1.260       .  A
C1269      C2270   1.448       .  S
O1270     Cr1275   1.992   1_556  S
O1271     Cr1275   1.988   1_556  S
O1271      C1272   1.259       .  A
C1272      C2326   1.427       .  S
Cr1273     O1276   1.765       .  S
Cr1274     O1276   1.777       .  S
Cr1275     O1276   1.767   1_554  S
O1277     Cr1295   1.995       .  S
O1277      C1285   1.260       .  A
O1278     Cr1295   1.960       .  S
O1278      C1279   1.257       .  A
C1279      O1280   1.279       .  A
C1279      C2637   1.450       .  S
O1280     Cr1296   2.058       .  S
O1281     Cr1296   2.010       .  S
O1281      C1282   1.268       .  A
C1282      O1283   1.263       .  A
C1282      C2269   1.448       .  S
O1283     Cr1297   1.995   1_556  S
O1284     Cr1297   1.987   1_556  S
O1284      C1285   1.258       .  A
C1285      C2592   1.432       .  S
O1286     Cr1295   1.965   1_554  S
O1286      C1294   1.256       .  A
O1287     Cr1295   1.993       .  S
O1287      C1288   1.257       .  A
C1288      O1289   1.266       .  A
C1288      C2576   1.455       .  S
O1289     Cr1296   2.026       .  S
O1290     Cr1296   2.039       .  S
O1290      C1291   1.271   1_556  A
C1291      O1292   1.256       .  A
C1291      C2290   1.445       .  S
O1292     Cr1297   1.966       .  S
O1293     Cr1297   2.007       .  S
O1293      C1294   1.265       .  A
C1294      C2601   1.421       .  S
Cr1295     O1298   1.767       .  S
Cr1296     O1298   1.773       .  S
Cr1297     O1298   1.769   1_554  S
O1299     Cr1317   1.997   1_655  S
O1299      C1307   1.262       .  A
O1300     Cr1317   1.964   1_655  S
O1300      C1301   1.256   1_655  A
C1301      O1302   1.269       .  A
C1301      C2455   1.437       .  S
O1302     Cr1318   2.028       .  S
O1303     Cr1318   1.995   1_655  S
O1303      C1304   1.262       .  A
C1304      O1305   1.261       .  A
C1304      C2265   1.433       .  S
O1305     Cr1319   1.987       .  S
O1306     Cr1319   1.991       .  S
O1306      C1307   1.260       .  A
C1307      C2494   1.435       .  S
O1308     Cr1317   1.979       .  S
O1308      C1316   1.260       .  A
O1309     Cr1317   1.998       .  S
O1309      C1310   1.261       .  A
C1310      O1311   1.261       .  A
C1310      C2446   1.444       .  S
O1311     Cr1318   2.000       .  S
O1312     Cr1318   2.016       .  S
O1312      C1313   1.266       .  A
C1313      O1314   1.259       .  A
C1313      C2268   1.433       .  S
O1314     Cr1319   1.970   1_455  S
O1315     Cr1319   2.003       .  S
O1315      C1316   1.262   1_655  A
C1316      C2439   1.431       .  S
Cr1317     O1320   1.765       .  S
Cr1318     O1320   1.780       .  S
Cr1319     O1320   1.769   1_655  S
O1321     Cr1339   1.985       .  S
O1321      C1329   1.257       .  A
O1322     Cr1339   1.956       .  S
O1322      C1323   1.256       .  A
C1323      O1324   1.273       .  A
C1323      C2608   1.437       .  S
O1324     Cr1340   2.038       .  S
O1325     Cr1340   2.006       .  S
O1325      C1326   1.264       .  A
C1326      O1327   1.261       .  A
C1326      C2263   1.445       .  S
O1327     Cr1341   1.992   1_545  S
O1328     Cr1341   1.995   1_545  S
O1328      C1329   1.260       .  A
C1329      C2584   1.429       .  S
O1330     Cr1339   1.980   1_565  S
O1330      C1338   1.261       .  A
O1331     Cr1339   1.987       .  S
O1331      C1332   1.256       .  A
C1332      O1333   1.261       .  A
C1332      C2619   1.444       .  S
O1333     Cr1340   2.010       .  S
O1334     Cr1340   2.019       .  S
O1334      C1335   1.268   1_545  A
C1335      O1336   1.259       .  A
C1335      C2266   1.435       .  S
O1336     Cr1341   1.968       .  S
O1337     Cr1341   2.008       .  S
O1337      C1338   1.264       .  A
C1338      C2632   1.432       .  S
Cr1339     O1342   1.767       .  S
Cr1340     O1342   1.778       .  S
Cr1341     O1342   1.767   1_565  S
O1343     Cr1361   2.000       .  S
O1343      C1351   1.262       .  A
O1344     Cr1361   1.960       .  S
O1344      C1345   1.257       .  A
C1345      O1346   1.271       .  A
C1345      C2257   1.437       .  S
O1346     Cr1362   2.033       .  S
O1347     Cr1362   1.974       .  S
O1347      C1348   1.257       .  A
C1348      O1349   1.264       .  A
C1348      C2253   1.426       .  S
O1349     Cr1363   1.996       .  S
O1350     Cr1363   1.995       .  S
O1350      C1351   1.261       .  A
C1351      C2256   1.440       .  S
O1352     Cr1361   1.976       .  S
O1352      C1360   1.259       .  A
O1353     Cr1361   1.993       .  S
O1353      C1354   1.260       .  A
C1354      O1355   1.254       .  A
C1354      C2259   1.427       .  S
O1355     Cr1362   1.981       .  S
O1356     Cr1362   2.021       .  S
O1356      C1357   1.267       .  A
C1357      O1358   1.258       .  A
C1357      C2252   1.438       .  S
O1358     Cr1363   1.971       .  S
O1359     Cr1363   2.010       .  S
O1359      C1360   1.264       .  A
C1360      C2261   1.433       .  S
Cr1361     O1364   1.762       .  S
Cr1362     O1364   1.781       .  S
Cr1363     O1364   1.765       .  S
O1365     Cr1383   1.966   1_655  S
O1365      C1373   1.257       .  A
O1366     Cr1383   1.987       .  S
O1366      C1367   1.256       .  A
C1367      O1368   1.260       .  A
C1367      C2245   1.441       .  S
O1368     Cr1384   2.008       .  S
O1369     Cr1384   2.029       .  S
O1369      C1370   1.270   1_455  A
C1370      O1371   1.259       .  A
C1370      C2497   1.444       .  S
O1371     Cr1385   1.972       .  S
O1372     Cr1385   2.010       .  S
O1372      C1373   1.265       .  A
C1373      C2248   1.424       .  S
O1374     Cr1383   1.985       .  S
O1374      C1382   1.257       .  A
O1375     Cr1383   1.953       .  S
O1375      C1376   1.254       .  A
C1376      O1377   1.277       .  A
C1376      C2243   1.443       .  S
O1377     Cr1384   2.054       .  S
O1378     Cr1384   1.999       .  S
O1378      C1379   1.265       .  A
C1379      O1380   1.262       .  A
C1379      C2442   1.439       .  S
O1380     Cr1385   1.991   1_455  S
O1381     Cr1385   1.992   1_455  S
O1381      C1382   1.259       .  A
C1382      C2249   1.427       .  S
Cr1383     O1386   1.764       .  S
Cr1384     O1386   1.774       .  S
Cr1385     O1386   1.765   1_655  S
O1387     Cr1405   1.997       .  S
O1387      C1395   1.262       .  A
O1388     Cr1405   1.960       .  S
O1388      C1389   1.257       .  A
C1389      O1390   1.273       .  A
C1389      C2242   1.441       .  S
O1390     Cr1406   2.041       .  S
O1391     Cr1406   1.987       .  S
O1391      C1392   1.262       .  A
C1392      O1393   1.264       .  A
C1392      C2586   1.431       .  S
O1393     Cr1407   1.993   1_545  S
O1394     Cr1407   1.984   1_545  S
O1394      C1395   1.257       .  A
C1395      C2239   1.432       .  S
O1396     Cr1405   1.968   1_565  S
O1396      C1404   1.257       .  A
O1397     Cr1405   1.993       .  S
O1397      C1398   1.259       .  A
C1398      O1399   1.260       .  A
C1398      C2238   1.439       .  S
O1399     Cr1406   1.999       .  S
O1400     Cr1406   2.024       .  S
O1400      C1401   1.267   1_545  A
C1401      O1402   1.256       .  A
C1401      C2654   1.436       .  S
O1402     Cr1407   1.967       .  S
O1403     Cr1407   2.007       .  S
O1403      C1404   1.264       .  A
C1404      C2247   1.425       .  S
Cr1405     O1408   1.763       .  S
Cr1406     O1408   1.776       .  S
Cr1407     O1408   1.764   1_565  S
O1409     Cr1427   2.005   1_545  S
O1409      C1417   1.265       .  A
O1410     Cr1427   1.955       .  S
O1410      C1411   1.256       .  A
C1411      O1412   1.275   1_455  A
C1411      C2246   1.442       .  S
O1412     Cr1428   2.045       .  S
O1413     Cr1428   1.982   1_455  S
O1413      C1414   1.259       .  A
C1414      O1415   1.264   1_565  A
C1414      C2230   1.427       .  S
O1415     Cr1429   1.993       .  S
O1416     Cr1429   1.973       .  S
O1416      C1417   1.255       .  A
C1417      C2234   1.428       .  S
O1418     Cr1427   1.966   1_645  S
O1418      C1426   1.255   1_655  A
O1419     Cr1427   2.000   1_655  S
O1419      C1420   1.261       .  A
C1420      O1421   1.258       .  A
C1420      C2237   1.440   1_565  S
O1421     Cr1428   1.993       .  S
O1422     Cr1428   2.035   1_545  S
O1422      C1423   1.270       .  A
C1423      O1424   1.252   1_655  A
C1423      C2232   1.434       .  S
O1424     Cr1429   1.953       .  S
O1425     Cr1429   2.004       .  S
O1425      C1426   1.263       .  A
C1426      C2235   1.422       .  S
Cr1427     O1430   1.759   1_565  S
Cr1428     O1430   1.773   1_665  S
Cr1429     O1430   1.762       .  S
O1431     Cr1449   1.985       .  S
O1431      C1439   1.260       .  A
O1432     Cr1449   1.992   1_565  S
O1432      C1433   1.258   1_565  A
C1433      O1434   1.266       .  A
C1433      C2228   1.455       .  S
O1434     Cr1450   2.023   1_545  S
O1435     Cr1450   2.018   1_545  S
O1435      C1436   1.267       .  A
C1436      O1437   1.256       .  A
C1436      C2221   1.428       .  S
O1437     Cr1451   1.960       .  S
O1438     Cr1451   2.007       .  S
O1438      C1439   1.262       .  A
C1439      C2225   1.435       .  S
O1440     Cr1449   1.988       .  S
O1440      C1448   1.260       .  A
O1441     Cr1449   1.966   1_565  S
O1441      C1442   1.258       .  A
C1442      O1443   1.272       .  A
C1442      C2244   1.445       .  S
O1443     Cr1450   2.037       .  S
O1444     Cr1450   2.020       .  S
O1444      C1445   1.269       .  A
C1445      O1446   1.261   1_565  A
C1445      C2224   1.455       .  S
O1446     Cr1451   1.996       .  S
O1447     Cr1451   1.984       .  S
O1447      C1448   1.258       .  A
C1448      C2233   1.425       .  S
Cr1449     O1452   1.767       .  S
Cr1450     O1452   1.778   1_565  S
Cr1451     O1452   1.770       .  S
O1453     Cr1471   1.964   1_655  S
O1453      C1461   1.257   1_655  A
O1454     Cr1471   1.987   1_655  S
O1454      C1455   1.256       .  A
C1455      O1456   1.260       .  A
C1455      C2241   1.440       .  S
O1456     Cr1472   2.007       .  S
O1457     Cr1472   2.025       .  S
O1457      C1458   1.269       .  A
C1458      O1459   1.261   1_655  A
C1458      C2218   1.445       .  S
O1459     Cr1473   1.978       .  S
O1460     Cr1473   2.006       .  S
O1460      C1461   1.265       .  A
C1461      C2236   1.420       .  S
O1462     Cr1471   1.987       .  S
O1462      C1470   1.257       .  A
O1463     Cr1471   1.951       .  S
O1463      C1464   1.254       .  A
C1464      O1465   1.276   1_455  A
C1464      C2220   1.439       .  S
O1465     Cr1472   2.050       .  S
O1466     Cr1472   1.992   1_455  S
O1466      C1467   1.263       .  A
C1467      O1468   1.261       .  A
C1467      C2215   1.432       .  S
O1468     Cr1473   1.986       .  S
O1469     Cr1473   1.999       .  S
O1469      C1470   1.261       .  A
C1470      C2226   1.433       .  S
Cr1471     O1474   1.764       .  S
Cr1472     O1474   1.775   1_655  S
Cr1473     O1474   1.765       .  S
O1475     Cr1493   1.974       .  S
O1475      C1483   1.256       .  A
O1476     Cr1493   1.993   1_655  S
O1476      C1477   1.259       .  A
C1477      O1478   1.261       .  A
C1477      C2209   1.446   1_655  S
O1478     Cr1494   2.008       .  S
O1479     Cr1494   2.023   1_455  S
O1479      C1480   1.268       .  A
C1480      O1481   1.254       .  A
C1480      C2213   1.425       .  S
O1481     Cr1495   1.956       .  S
O1482     Cr1495   2.003       .  S
O1482      C1483   1.262       .  A
C1483      C2205   1.425       .  S
O1484     Cr1493   1.997       .  S
O1484      C1492   1.263       .  A
O1485     Cr1493   1.955   1_655  S
O1485      C1486   1.254       .  A
C1486      O1487   1.275       .  A
C1486      C2208   1.445       .  S
O1487     Cr1494   2.047       .  S
O1488     Cr1494   2.006       .  S
O1488      C1489   1.266       .  A
C1489      O1490   1.262   1_655  A
C1489      C2217   1.443       .  S
O1490     Cr1495   1.995       .  S
O1491     Cr1495   1.975       .  S
O1491      C1492   1.257       .  A
C1492      C2211   1.424       .  S
Cr1493     O1496   1.761       .  S
Cr1494     O1496   1.773   1_655  S
Cr1495     O1496   1.762       .  S
O1497     Cr1515   1.963       .  S
O1497      C1505   1.256       .  A
O1498     Cr1515   1.994       .  S
O1498      C1499   1.260       .  A
C1499      O1500   1.254       .  A
C1499      C2202   1.426       .  S
O1500     Cr1516   1.981       .  S
O1501     Cr1516   2.017       .  S
O1501      C1502   1.266       .  A
C1502      O1503   1.257       .  A
C1502      C2216   1.434       .  S
O1503     Cr1517   1.968       .  S
O1504     Cr1517   2.017       .  S
O1504      C1505   1.267       .  A
C1505      C2200   1.426       .  S
O1506     Cr1515   2.001       .  S
O1506      C1514   1.261       .  A
O1507     Cr1515   1.951       .  S
O1507      C1508   1.255       .  A
C1508      O1509   1.271       .  A
C1508      C2203   1.429       .  S
O1509     Cr1516   2.033       .  S
O1510     Cr1516   1.970       .  S
O1510      C1511   1.257       .  A
C1511      O1512   1.267       .  A
C1511      C2214   1.428       .  S
O1512     Cr1517   2.004       .  S
O1513     Cr1517   1.995       .  S
O1513      C1514   1.260       .  A
C1514      C2255   1.440       .  S
Cr1515     O1518   1.758       .  S
Cr1516     O1518   1.779       .  S
Cr1517     O1518   1.762       .  S
O1519     Cr1537   1.989       .  S
O1519      C1527   1.259       .  A
O1520     Cr1537   1.953       .  S
O1520      C1521   1.256       .  A
C1521      O1522   1.270       .  A
C1521      C2197   1.429       .  S
O1522     Cr1538   2.026       .  S
O1523     Cr1538   1.988       .  S
O1523      C1524   1.261       .  A
C1524      O1525   1.263       .  A
C1524      C2194   1.434       .  S
O1525     Cr1539   1.994       .  S
O1526     Cr1539   1.992       .  S
O1526      C1527   1.260       .  A
C1527      C2262   1.431       .  S
O1528     Cr1537   1.971       .  S
O1528      C1536   1.259       .  A
O1529     Cr1537   1.988       .  S
O1529      C1530   1.257       .  A
C1530      O1531   1.258       .  A
C1530      C2196   1.436       .  S
O1531     Cr1538   1.998       .  S
O1532     Cr1538   2.009       .  S
O1532      C1533   1.264       .  A
C1533      O1534   1.258       .  A
C1533      C2222   1.429       .  S
O1534     Cr1539   1.968       .  S
O1535     Cr1539   2.009       .  S
O1535      C1536   1.265       .  A
C1536      C2199   1.427       .  S
Cr1537     O1540   1.763       .  S
Cr1538     O1540   1.778       .  S
Cr1539     O1540   1.763       .  S
O1541     Cr1559   1.993       .  S
O1541      C1549   1.261       .  A
O1542     Cr1559   1.963   1_565  S
O1542      C1543   1.257       .  A
C1543      O1544   1.273       .  A
C1543      C2190   1.445       .  S
O1544     Cr1560   2.041       .  S
O1545     Cr1560   2.020       .  S
O1545      C1546   1.269       .  A
C1546      O1547   1.261   1_565  A
C1546      C2223   1.455       .  S
O1547     Cr1561   1.995       .  S
O1548     Cr1561   1.988       .  S
O1548      C1549   1.260       .  A
C1549      C2192   1.431       .  S
O1550     Cr1559   1.980       .  S
O1550      C1558   1.259       .  A
O1551     Cr1559   1.995   1_565  S
O1551      C1552   1.258   1_565  A
C1552      O1553   1.266       .  A
C1552      C2187   1.456       .  S
O1553     Cr1560   2.022   1_545  S
O1554     Cr1560   2.023   1_545  S
O1554      C1555   1.268       .  A
C1555      O1556   1.257       .  A
C1555      C2193   1.433       .  S
O1556     Cr1561   1.965       .  S
O1557     Cr1561   2.005       .  S
O1557      C1558   1.262       .  A
C1558      C2186   1.432       .  S
Cr1559     O1562   1.768       .  S
Cr1560     O1562   1.778   1_565  S
Cr1561     O1562   1.771       .  S
O1563     Cr1581   1.980   1_565  S
O1563      C1571   1.260       .  A
O1564     Cr1581   1.996       .  S
O1564      C1565   1.259       .  A
C1565      O1566   1.265       .  A
C1565      C2227   1.455       .  S
O1566     Cr1582   2.019       .  S
O1567     Cr1582   2.024       .  S
O1567      C1568   1.268   1_545  A
C1568      O1569   1.255       .  A
C1568      C2267   1.432       .  S
O1569     Cr1583   1.959   1_455  S
O1570     Cr1583   2.001       .  S
O1570      C1571   1.262   1_655  A
C1571      C2250   1.429       .  S
O1572     Cr1581   1.995   1_655  S
O1572      C1580   1.261       .  A
O1573     Cr1581   1.963       .  S
O1573      C1574   1.258       .  A
C1574      O1575   1.273       .  A
C1574      C2219   1.442       .  S
O1575     Cr1582   2.036       .  S
O1576     Cr1582   2.009       .  S
O1576      C1577   1.265   1_455  A
C1577      O1578   1.260       .  A
C1577      C2264   1.445       .  S
O1578     Cr1583   1.990   1_545  S
O1579     Cr1583   1.986   1_545  S
O1579      C1580   1.258       .  A
C1580      C2240   1.431       .  S
Cr1581     O1584   1.766       .  S
Cr1582     O1584   1.778       .  S
Cr1583     O1584   1.769   1_665  S
O1585     Cr1603   1.970       .  S
O1585      C1593   1.258       .  A
O1586     Cr1603   1.991       .  S
O1586      C1587   1.260       .  A
C1587      O1588   1.256       .  A
C1587      C2198   1.429       .  S
O1588     Cr1604   1.985       .  S
O1589     Cr1604   2.007       .  S
O1589      C1590   1.264       .  A
C1590      O1591   1.258       .  A
C1590      C2183   1.428       .  S
O1591     Cr1605   1.970       .  S
O1592     Cr1605   2.008       .  S
O1592      C1593   1.264       .  A
C1593      C2177   1.428       .  S
O1594     Cr1603   1.993       .  S
O1594      C1602   1.260       .  A
O1595     Cr1603   1.954       .  S
O1595      C1596   1.255       .  A
C1596      O1597   1.267       .  A
C1596      C2260   1.426       .  S
O1597     Cr1604   2.022       .  S
O1598     Cr1604   1.979       .  S
O1598      C1599   1.259       .  A
C1599      O1600   1.264       .  A
C1599      C2181   1.425       .  S
O1600     Cr1605   1.993       .  S
O1601     Cr1605   1.990       .  S
O1601      C1602   1.260       .  A
C1602      C2180   1.431       .  S
Cr1603     O1606   1.758       .  S
Cr1604     O1606   1.778       .  S
Cr1605     O1606   1.761       .  S
O1607     Cr1625   1.975       .  S
O1607      C1615   1.260       .  A
O1608     Cr1625   1.990       .  S
O1608      C1609   1.258       .  A
C1609      O1610   1.259       .  A
C1609      C2258   1.437       .  S
O1610     Cr1626   1.998       .  S
O1611     Cr1626   2.005       .  S
O1611      C1612   1.262       .  A
C1612      O1613   1.260       .  A
C1612      C2174   1.431       .  S
O1613     Cr1627   1.975       .  S
O1614     Cr1627   2.012       .  S
O1614      C1615   1.266       .  A
C1615      C2179   1.432       .  S
O1616     Cr1625   1.991       .  S
O1616      C1624   1.258       .  A
O1617     Cr1625   1.963       .  S
O1617      C1618   1.258       .  A
C1618      O1619   1.268       .  A
C1618      C2204   1.431       .  S
O1619     Cr1626   2.021       .  S
O1620     Cr1626   1.984       .  S
O1620      C1621   1.260       .  A
C1621      O1622   1.264       .  A
C1621      C2175   1.431       .  S
O1622     Cr1627   1.993       .  S
O1623     Cr1627   2.002       .  S
O1623      C1624   1.262       .  A
C1624      C2172   1.439       .  S
Cr1625     O1628   1.763       .  S
Cr1626     O1628   1.781       .  S
Cr1627     O1628   1.767       .  S
O1629     Cr1647   2.005       .  S
O1629      C1637   1.263       .  A
O1630     Cr1647   1.955       .  S
O1630      C1631   1.255       .  A
C1631      O1632   1.267       .  A
C1631      C2201   1.426       .  S
O1632     Cr1648   2.019       .  S
O1633     Cr1648   1.980       .  S
O1633      C1634   1.260       .  A
C1634      O1635   1.267       .  A
C1634      C2167   1.432       .  S
O1635     Cr1649   2.002       .  S
O1636     Cr1649   1.991       .  S
O1636      C1637   1.259       .  A
C1637      C2171   1.441       .  S
O1638     Cr1647   1.965       .  S
O1638      C1646   1.256       .  A
O1639     Cr1647   2.002       .  S
O1639      C1640   1.262       .  A
C1640      O1641   1.258       .  A
C1640      C2195   1.437       .  S
O1641     Cr1648   1.988       .  S
O1642     Cr1648   2.008       .  S
O1642      C1643   1.263       .  A
C1643      O1644   1.256       .  A
C1643      C2169   1.429       .  S
O1644     Cr1649   1.969       .  S
O1645     Cr1649   2.013       .  S
O1645      C1646   1.266       .  A
C1646      C2178   1.428       .  S
Cr1647     O1650   1.760       .  S
Cr1648     O1650   1.780       .  S
Cr1649     O1650   1.763       .  S
O1651     Cr1669   1.967       .  S
O1651      C1659   1.257       .  A
O1652     Cr1669   1.996       .  S
O1652      C1653   1.259       .  A
C1653      O1654   1.261       .  A
C1653      C2299   1.445       .  S
O1654     Cr1670   2.006       .  S
O1655     Cr1670   2.036       .  S
O1655      C1656   1.270       .  A
C1656      O1657   1.255       .  A
C1656      C2161   1.443       .  S
O1657     Cr1671   1.965       .  S
O1658     Cr1671   2.001       .  S
O1658      C1659   1.263       .  A
C1659      C2163   1.421       .  S
O1660     Cr1669   2.000       .  S
O1660      C1668   1.262       .  A
O1661     Cr1669   1.960       .  S
O1661      C1662   1.257       .  A
C1662      O1663   1.276       .  A
C1662      C2286   1.446       .  S
O1663     Cr1670   2.050       .  S
O1664     Cr1670   1.986       .  S
O1664      C1665   1.261       .  A
C1665      O1666   1.262       .  A
C1665      C2184   1.425       .  S
O1666     Cr1671   1.985       .  S
O1667     Cr1671   1.986       .  S
O1667      C1668   1.258       .  A
C1668      C2165   1.434       .  S
Cr1669     O1672   1.762       .  S
Cr1670     O1672   1.775       .  S
Cr1671     O1672   1.766       .  S
O1673     Cr1691   1.965       .  S
O1673      C1681   1.255       .  A
O1674     Cr1691   1.995       .  S
O1674      C1675   1.260       .  A
C1675      O1676   1.260       .  A
C1675      C2328   1.441       .  S
O1676     Cr1692   2.002       .  S
O1677     Cr1692   2.007       .  S
O1677      C1678   1.263       .  A
C1678      O1679   1.257       .  A
C1678      C2182   1.426       .  S
O1679     Cr1693   1.968       .  S
O1680     Cr1693   2.013       .  S
O1680      C1681   1.265       .  A
C1681      C2159   1.426       .  S
O1682     Cr1691   1.998       .  S
O1682      C1690   1.262       .  A
O1683     Cr1691   1.954       .  S
O1683      C1684   1.254       .  A
C1684      O1685   1.270       .  A
C1684      C2338   1.431       .  S
O1685     Cr1692   2.031       .  S
O1686     Cr1692   1.996       .  S
O1686      C1687   1.265       .  A
C1687      O1688   1.266       .  A
C1687      C2162   1.443       .  S
O1688     Cr1693   2.004       .  S
O1689     Cr1693   1.989       .  S
O1689      C1690   1.260       .  A
C1690      C2157   1.435       .  S
Cr1691     O1694   1.761       .  S
Cr1692     O1694   1.777       .  S
Cr1693     O1694   1.764       .  S
O1695     Cr1713   1.983       .  S
O1695      C1703   1.260       .  A
O1696     Cr1713   1.990       .  S
O1696      C1697   1.257       .  A
C1697      O1698   1.263       .  A
C1697      C2272   1.448       .  S
O1698     Cr1714   2.013   1_556  S
O1699     Cr1714   2.019   1_556  S
O1699      C1700   1.268       .  A
C1700      O1701   1.258       .  A
C1700      C2358   1.431       .  S
O1701     Cr1715   1.963   1_545  S
O1702     Cr1715   2.002       .  S
O1702      C1703   1.262   1_565  A
C1703      C2310   1.431       .  S
O1704     Cr1713   1.987   1_565  S
O1704      C1712   1.259       .  A
O1705     Cr1713   1.961   1_554  S
O1705      C1706   1.257       .  A
C1706      O1707   1.272       .  A
C1706      C2276   1.440       .  S
O1707     Cr1714   2.036       .  S
O1708     Cr1714   2.009   1_565  S
O1708      C1709   1.265       .  A
C1709      O1710   1.259   1_554  A
C1709      C2346   1.443       .  S
O1710     Cr1715   1.985       .  S
O1711     Cr1715   1.988       .  S
O1711      C1712   1.259       .  A
C1712      C2317   1.426       .  S
Cr1713     O1716   1.766       .  S
Cr1714     O1716   1.776   1_554  S
Cr1715     O1716   1.768   1_565  S
O1717     Cr1735   1.995       .  S
O1717      C1725   1.261       .  A
O1718     Cr1735   1.964       .  S
O1718      C1719   1.258       .  A
C1719      O1720   1.272       .  A
C1719      C2283   1.439       .  S
O1720     Cr1736   2.032       .  S
O1721     Cr1736   1.988       .  S
O1721      C1722   1.260       .  A
C1722      O1723   1.260       .  A
C1722      C2170   1.427       .  S
O1723     Cr1737   1.983       .  S
O1724     Cr1737   1.990       .  S
O1724      C1725   1.259       .  A
C1725      C2166   1.433       .  S
O1726     Cr1735   1.981       .  S
O1726      C1734   1.261       .  A
O1727     Cr1735   1.995       .  S
O1727      C1728   1.259       .  A
C1728      O1729   1.261       .  A
C1728      C2294   1.443       .  S
O1729     Cr1736   2.003       .  S
O1730     Cr1736   2.022       .  S
O1730      C1731   1.267       .  A
C1731      O1732   1.256       .  A
C1731      C2155   1.432       .  S
O1732     Cr1737   1.962       .  S
O1733     Cr1737   1.998       .  S
O1733      C1734   1.262       .  A
C1734      C2153   1.428       .  S
Cr1735     O1738   1.762       .  S
Cr1736     O1738   1.779       .  S
Cr1737     O1738   1.767       .  S
O1739     Cr1757   1.982       .  S
O1739      C1747   1.256       .  A
O1740     Cr1757   1.951       .  S
O1740      C1741   1.255       .  A
C1741      O1742   1.273       .  A
C1741      C2295   1.432       .  S
O1742     Cr1758   2.039       .  S
O1743     Cr1758   2.002       .  S
O1743      C1744   1.265       .  A
C1744      O1745   1.263       .  A
C1744      C2151   1.444       .  S
O1745     Cr1759   1.995       .  S
O1746     Cr1759   1.993       .  S
O1746      C1747   1.259       .  A
C1747      C2154   1.426       .  S
O1748     Cr1757   1.963       .  S
O1748      C1756   1.257       .  A
O1749     Cr1757   1.984       .  S
O1749      C1750   1.255       .  A
C1750      O1751   1.261       .  A
C1750      C2302   1.441       .  S
O1751     Cr1758   2.012       .  S
O1752     Cr1758   2.019       .  S
O1752      C1753   1.267       .  A
C1753      O1754   1.258       .  A
C1753      C2150   1.436       .  S
O1754     Cr1759   1.969       .  S
O1755     Cr1759   2.010       .  S
O1755      C1756   1.266       .  A
C1756      C2164   1.420       .  S
Cr1757     O1760   1.762       .  S
Cr1758     O1760   1.773       .  S
Cr1759     O1760   1.765       .  S
O1761     Cr1779   1.985       .  S
O1761      C1769   1.259       .  A
O1762     Cr1779   1.952       .  S
O1762      C1763   1.256       .  A
C1763      O1764   1.276       .  A
C1763      C2334   1.442       .  S
O1764     Cr1780   2.049       .  S
O1765     Cr1780   2.020       .  S
O1765      C1766   1.270       .  A
C1766      O1767   1.263       .  A
C1766      C2147   1.457       .  S
O1767     Cr1781   1.998       .  S
O1768     Cr1781   1.980       .  S
O1768      C1769   1.257       .  A
C1769      C2145   1.420       .  S
O1770     Cr1779   1.972       .  S
O1770      C1778   1.258       .  A
O1771     Cr1779   1.989       .  S
O1771      C1772   1.255       .  A
C1772      O1773   1.265       .  A
C1772      C2330   1.456       .  S
O1773     Cr1780   2.028       .  S
O1774     Cr1780   2.023       .  S
O1774      C1775   1.268       .  A
C1775      O1776   1.254       .  A
C1775      C2173   1.428       .  S
O1776     Cr1781   1.954       .  S
O1777     Cr1781   2.009       .  S
O1777      C1778   1.265       .  A
C1778      C2160   1.427       .  S
Cr1779     O1782   1.766       .  S
Cr1780     O1782   1.773       .  S
Cr1781     O1782   1.765       .  S
O1783     Cr1801   2.000       .  S
O1783      C1791   1.262       .  A
O1784     Cr1801   1.964       .  S
O1784      C1785   1.258       .  A
C1785      O1786   1.271       .  A
C1785      C2344   1.439       .  S
O1786     Cr1802   2.032       .  S
O1787     Cr1802   1.996       .  S
O1787      C1788   1.263       .  A
C1788      O1789   1.261       .  A
C1788      C2149   1.434       .  S
O1789     Cr1803   1.986       .  S
O1790     Cr1803   1.988       .  S
O1790      C1791   1.259       .  A
C1791      C2158   1.435       .  S
O1792     Cr1801   1.974       .  S
O1792      C1800   1.258       .  A
O1793     Cr1801   1.995       .  S
O1793      C1794   1.260       .  A
C1794      O1795   1.261       .  A
C1794      C2332   1.445       .  S
O1795     Cr1802   2.006       .  S
O1796     Cr1802   2.017       .  S
O1796      C1797   1.266       .  A
C1797      O1798   1.256       .  A
C1797      C2144   1.431       .  S
O1798     Cr1803   1.964       .  S
O1799     Cr1803   1.996       .  S
O1799      C1800   1.261       .  A
C1800      C2146   1.422       .  S
Cr1801     O1804   1.763       .  S
Cr1802     O1804   1.778       .  S
Cr1803     O1804   1.768       .  S
O1805     Cr1823   1.979       .  S
O1805      C1813   1.262       .  A
O1806     Cr1823   1.983       .  S
O1806      C1807   1.254       .  A
C1807      O1808   1.259       .  A
C1807      C2384   1.438       .  S
O1808     Cr1824   2.006       .  S
O1809     Cr1824   2.014       .  S
O1809      C1810   1.266       .  A
C1810      O1811   1.259       .  A
C1810      C2156   1.433       .  S
O1811     Cr1825   1.968       .  S
O1812     Cr1825   2.001       .  S
O1812      C1813   1.264       .  A
C1813      C2139   1.427       .  S
O1814     Cr1823   1.983       .  S
O1814      C1822   1.256       .  A
O1815     Cr1823   1.958       .  S
O1815      C1816   1.258       .  A
C1816      O1817   1.272       .  A
C1816      C2374   1.433       .  S
O1817     Cr1824   2.030       .  S
O1818     Cr1824   1.991       .  S
O1818      C1819   1.260       .  A
C1819      O1820   1.259       .  A
C1819      C2168   1.429       .  S
O1820     Cr1825   1.979       .  S
O1821     Cr1825   1.998       .  S
O1821      C1822   1.260       .  A
C1822      C2141   1.430       .  S
Cr1823     O1826   1.764       .  S
Cr1824     O1826   1.778       .  S
Cr1825     O1826   1.766       .  S
O1827     Cr1845   1.998   1_655  S
O1827      C1835   1.263       .  A
O1828     Cr1845   1.971   1_654  S
O1828      C1829   1.260   1_655  A
C1829      O1830   1.272       .  A
C1829      C2361   1.448       .  S
O1830     Cr1846   2.035       .  S
O1831     Cr1846   1.991   1_655  S
O1831      C1832   1.260       .  A
C1832      O1833   1.261   1_554  A
C1832      C2418   1.434       .  S
O1833     Cr1847   1.989       .  S
O1834     Cr1847   1.985       .  S
O1834      C1835   1.259       .  A
C1835      C2406   1.431       .  S
O1836     Cr1845   1.984       .  S
O1836      C1844   1.260       .  A
O1837     Cr1845   1.996       .  S
O1837      C1838   1.260       .  A
C1838      O1839   1.258       .  A
C1838      C2366   1.441       .  S
O1839     Cr1846   1.996   1_556  S
O1840     Cr1846   2.022   1_556  S
O1840      C1841   1.267       .  A
C1841      O1842   1.256       .  A
C1841      C2430   1.431       .  S
O1842     Cr1847   1.961   1_455  S
O1843     Cr1847   2.000       .  S
O1843      C1844   1.261   1_655  A
C1844      C2401   1.430       .  S
Cr1845     O1848   1.765       .  S
Cr1846     O1848   1.779   1_554  S
Cr1847     O1848   1.770   1_655  S
O1849     Cr1867   1.980       .  S
O1849      C1857   1.260       .  A
O1850     Cr1867   1.986       .  S
O1850      C1851   1.256       .  A
C1851      O1852   1.262       .  A
C1851      C2391   1.445       .  S
O1852     Cr1868   2.012       .  S
O1853     Cr1868   2.019       .  S
O1853      C1854   1.268       .  A
C1854      O1855   1.258       .  A
C1854      C2143   1.431       .  S
O1855     Cr1869   1.963       .  S
O1856     Cr1869   2.002       .  S
O1856      C1857   1.262       .  A
C1857      C2137   1.429       .  S
O1858     Cr1867   1.986       .  S
O1858      C1866   1.259       .  A
O1859     Cr1867   1.961       .  S
O1859      C1860   1.258       .  A
C1860      O1861   1.273       .  A
C1860      C2385   1.442       .  S
O1861     Cr1868   2.039       .  S
O1862     Cr1868   2.007       .  S
O1862      C1863   1.265       .  A
C1863      O1864   1.259       .  A
C1863      C2152   1.443       .  S
O1864     Cr1869   1.987       .  S
O1865     Cr1869   1.988       .  S
O1865      C1866   1.259       .  A
C1866      C2140   1.425       .  S
Cr1867     O1870   1.766       .  S
Cr1868     O1870   1.776       .  S
Cr1869     O1870   1.768       .  S
O1871     Cr1889   1.984       .  S
O1871      C1879   1.261       .  A
O1872     Cr1889   1.987       .  S
O1872      C1873   1.255       .  A
C1873      O1874   1.265       .  A
C1873      C2376   1.455       .  S
O1874     Cr1890   2.026       .  S
O1875     Cr1890   2.019       .  S
O1875      C1876   1.268       .  A
C1876      O1877   1.257       .  A
C1876      C2176   1.431       .  S
O1877     Cr1891   1.961       .  S
O1878     Cr1891   2.004       .  S
O1878      C1879   1.263       .  A
C1879      C2142   1.433       .  S
O1880     Cr1889   1.985       .  S
O1880      C1888   1.258       .  A
O1881     Cr1889   1.960       .  S
O1881      C1882   1.258       .  A
C1882      O1883   1.275       .  A
C1882      C2389   1.444       .  S
O1883     Cr1890   2.042       .  S
O1884     Cr1890   2.023       .  S
O1884      C1885   1.269       .  A
C1885      O1886   1.260       .  A
C1885      C2148   1.456       .  S
O1886     Cr1891   1.992       .  S
O1887     Cr1891   1.989       .  S
O1887      C1888   1.259       .  A
C1888      C2138   1.426       .  S
Cr1889     O1892   1.769       .  S
Cr1890     O1892   1.777       .  S
Cr1891     O1892   1.769       .  S
O1893     Cr1911   1.966       .  S
O1893      C1901   1.258       .  A
O1894     Cr1911   1.983       .  S
O1894      C1895   1.254       .  A
C1895      O1896   1.258       .  A
C1895      C2680   1.431       .  S
O1896     Cr1912   2.002       .  S
O1897     Cr1912   2.019       .  S
O1897      C1898   1.266       .  A
C1898      O1899   1.257       .  A
C1898      C2396   1.435       .  S
O1899     Cr1913   1.966       .  S
O1900     Cr1913   2.016       .  S
O1900      C1901   1.268       .  A
C1901      C2664   1.427       .  S
O1902     Cr1911   1.985       .  S
O1902      C1910   1.256       .  A
O1903     Cr1911   1.949       .  S
O1903      C1904   1.255       .  A
C1904      O1905   1.274       .  A
C1904      C2559   1.430       .  S
O1905     Cr1912   2.039       .  S
O1906     Cr1912   1.983       .  S
O1906      C1907   1.261       .  A
C1907      O1908   1.265       .  A
C1907      C2135   1.433       .  S
O1908     Cr1913   1.998       .  S
O1909     Cr1913   1.995       .  S
O1909      C1910   1.259       .  A
C1910      C2670   1.431       .  S
Cr1911     O1914   1.761       .  S
Cr1912     O1914   1.777       .  S
Cr1913     O1914   1.761       .  S
O1915     Cr1933   1.979       .  S
O1915      C1923   1.260       .  A
O1916     Cr1933   1.998       .  S
O1916      C1917   1.261       .  A
C1917      O1918   1.260       .  A
C1917      C2535   1.443       .  S
O1918     Cr1934   1.999       .  S
O1919     Cr1934   2.017       .  S
O1919      C1920   1.266       .  A
C1920      O1921   1.259       .  A
C1920      C2134   1.434       .  S
O1921     Cr1935   1.970       .  S
O1922     Cr1935   2.002       .  S
O1922      C1923   1.262       .  A
C1923      C2508   1.431       .  S
O1924     Cr1933   1.997       .  S
O1924      C1932   1.261       .  A
O1925     Cr1933   1.964       .  S
O1925      C1926   1.257       .  A
C1926      O1927   1.269       .  A
C1926      C2518   1.437       .  S
O1927     Cr1934   2.028       .  S
O1928     Cr1934   1.992       .  S
O1928      C1929   1.261       .  A
C1929      O1930   1.260       .  A
C1929      C2306   1.431       .  S
O1930     Cr1935   1.986       .  S
O1931     Cr1935   1.992       .  S
O1931      C1932   1.260       .  A
C1932      C2506   1.435       .  S
Cr1933     O1936   1.764       .  S
Cr1934     O1936   1.780       .  S
Cr1935     O1936   1.769       .  S
O1937     Cr1955   1.983       .  S
O1937      C1945   1.257       .  A
O1938     Cr1955   1.959       .  S
O1938      C1939   1.256       .  A
C1939      O1940   1.275       .  A
C1939      C2189   1.444       .  S
O1940     Cr1956   2.048       .  S
O1941     Cr1956   2.007       .  S
O1941      C1942   1.265       .  A
C1942      O1943   1.259       .  A
C1942      C2513   1.442       .  S
O1943     Cr1957   1.985       .  S
O1944     Cr1957   1.994       .  S
O1944      C1945   1.260       .  A
C1945      C2130   1.427       .  S
O1946     Cr1955   1.977       .  S
O1946      C1954   1.260       .  A
O1947     Cr1955   1.986       .  S
O1947      C1948   1.256       .  A
C1948      O1949   1.262       .  A
C1948      C2131   1.445       .  S
O1949     Cr1956   2.012       .  S
O1950     Cr1956   2.027       .  S
O1950      C1951   1.270       .  A
C1951      O1952   1.260       .  A
C1951      C2487   1.442       .  S
O1952     Cr1957   1.972       .  S
O1953     Cr1957   2.005       .  S
O1953      C1954   1.263       .  A
C1954      C2349   1.429       .  S
Cr1955     O1958   1.767       .  S
Cr1956     O1958   1.777       .  S
Cr1957     O1958   1.769       .  S
O1959     Cr1977   2.001       .  S
O1959      C1967   1.263       .  A
O1960     Cr1977   1.957       .  S
O1960      C1961   1.255       .  A
C1961      O1962   1.276       .  A
C1961      C2127   1.448       .  S
O1962     Cr1978   2.056       .  S
O1963     Cr1978   2.006       .  S
O1963      C1964   1.269       .  A
C1964      O1965   1.267       .  A
C1964      C2644   1.451       .  S
O1965     Cr1979   2.008       .  S
O1966     Cr1979   1.977       .  S
O1966      C1967   1.256       .  A
C1967      C2422   1.430       .  S
O1968     Cr1977   1.964       .  S
O1968      C1976   1.254       .  A
O1969     Cr1977   1.996       .  S
O1969      C1970   1.260       .  A
C1970      O1971   1.262       .  A
C1970      C2207   1.447       .  S
O1971     Cr1978   2.011       .  S
O1972     Cr1978   2.028       .  S
O1972      C1973   1.268       .  A
C1973      O1974   1.255       .  A
C1973      C2674   1.436       .  S
O1974     Cr1979   1.963       .  S
O1975     Cr1979   2.016       .  S
O1975      C1976   1.266       .  A
C1976      C2125   1.427       .  S
Cr1977     O1980   1.765       .  S
Cr1978     O1980   1.775       .  S
Cr1979     O1980   1.765       .  S
O1981     Cr1999   2.009       .  S
O1981      C1989   1.266       .  A
O1982     Cr1999   1.960       .  S
O1982      C1983   1.255       .  A
C1983      O1984   1.272       .  A
C1983      C2420   1.443       .  S
O1984     Cr2000   2.041       .  S
O1985     Cr2000   1.996       .  S
O1985      C1986   1.266       .  A
C1986      O1987   1.266       .  A
C1986      C2120   1.442       .  S
O1987     Cr2001   2.004       .  S
O1988     Cr2001   1.980       .  S
O1988      C1989   1.258       .  A
C1989      C2121   1.437       .  S
O1990     Cr1999   1.966       .  S
O1990      C1998   1.253       .  A
O1991     Cr1999   1.999       .  S
O1991      C1992   1.262       .  A
C1992      O1993   1.259       .  A
C1992      C2124   1.443       .  S
O1993     Cr2000   1.999       .  S
O1994     Cr2000   2.016       .  S
O1994      C1995   1.265       .  A
C1995      O1996   1.254       .  A
C1995      C2254   1.425       .  S
O1996     Cr2001   1.962       .  S
O1997     Cr2001   2.009       .  S
O1997      C1998   1.263       .  A
C1998      C2206   1.425       .  S
Cr1999     O2002   1.760       .  S
Cr2000     O2002   1.777       .  S
Cr2001     O2002   1.763       .  S
O2003     Cr2021   1.964       .  S
O2003      C2011   1.258       .  A
O2004     Cr2021   1.990       .  S
O2004      C2005   1.258       .  A
C2005      O2006   1.261       .  A
C2005      C2122   1.435       .  S
O2006     Cr2022   1.998       .  S
O2007     Cr2022   1.994       .  S
O2007      C2008   1.263       .  A
C2008      O2009   1.265       .  A
C2008      C2118   1.444       .  S
O2009     Cr2023   2.001   1_455  S
O2010     Cr2023   2.033       .  S
O2010      C2011   1.271   1_655  A
C2011      C2426   1.439       .  S
O2012     Cr2021   1.993   1_655  S
O2012      C2020   1.258       .  A
O2013     Cr2021   1.970   1_655  S
O2013      C2014   1.258   1_655  A
C2014      O2015   1.264       .  A
C2014      C2212   1.425       .  S
O2015     Cr2022   2.006       .  S
O2016     Cr2022   1.977       .  S
O2016      C2017   1.260   1_455  A
C2017      O2018   1.264       .  A
C2017      C2231   1.437       .  S
O2018     Cr2023   2.010       .  S
O2019     Cr2023   2.012       .  S
O2019      C2020   1.262       .  A
C2020      C2128   1.449       .  S
Cr2021     O2024   1.769       .  S
Cr2022     O2024   1.773       .  S
Cr2023     O2024   1.780   1_655  S
O2025     Cr2043   1.989       .  S
O2025      C2033   1.258       .  A
O2026     Cr2043   1.952       .  S
O2026      C2027   1.254       .  A
C2027      O2028   1.277       .  A
C2027      C2115   1.443       .  S
O2028     Cr2044   2.053       .  S
O2029     Cr2044   2.000       .  S
O2029      C2030   1.265       .  A
C2030      O2031   1.260       .  A
C2030      C2251   1.435       .  S
O2031     Cr2045   1.983       .  S
O2032     Cr2045   1.993       .  S
O2032      C2033   1.259       .  A
C2033      C2185   1.430       .  S
O2034     Cr2043   1.965       .  S
O2034      C2042   1.257       .  A
O2035     Cr2043   1.990       .  S
O2035      C2036   1.256       .  A
C2036      O2037   1.262       .  A
C2036      C2348   1.448       .  S
O2037     Cr2044   2.015       .  S
O2038     Cr2044   2.029       .  S
O2038      C2039   1.270       .  A
C2039      O2040   1.259       .  A
C2039      C2119   1.442       .  S
O2040     Cr2045   1.971       .  S
O2041     Cr2045   2.002       .  S
O2041      C2042   1.264       .  A
C2042      C2114   1.418       .  S
Cr2043     O2046   1.765       .  S
Cr2044     O2046   1.774       .  S
Cr2045     O2046   1.766       .  S
O2047     Cr2065   1.963   1_545  S
O2047      C2055   1.255       .  A
O2048     Cr2065   1.996       .  S
O2048      C2049   1.260       .  A
C2049      O2050   1.259       .  A
C2049      C2353   1.438   1_565  S
O2050     Cr2066   1.997       .  S
O2051     Cr2066   2.039   1_545  S
O2051      C2052   1.271       .  A
C2052      O2053   1.254       .  A
C2052      C2117   1.443       .  S
O2053     Cr2067   1.962       .  S
O2054     Cr2067   2.004       .  S
O2054      C2055   1.264       .  A
C2055      C2113   1.419       .  S
O2056     Cr2065   2.002   1_545  S
O2056      C2064   1.263       .  A
O2057     Cr2065   1.958       .  S
O2057      C2058   1.257       .  A
C2058      O2059   1.276       .  A
C2058      C2132   1.445       .  S
O2059     Cr2066   2.052       .  S
O2060     Cr2066   1.981       .  S
O2060      C2061   1.260       .  A
C2061      O2062   1.264   1_565  A
C2061      C2229   1.428       .  S
O2062     Cr2067   1.993       .  S
O2063     Cr2067   1.982       .  S
O2063      C2064   1.257       .  A
C2064      C2191   1.432       .  S
Cr2065     O2068   1.761   1_565  S
Cr2066     O2068   1.774   1_565  S
Cr2067     O2068   1.764       .  S
O2069     Cr2087   1.985       .  S
O2069      C2077   1.258       .  A
O2070     Cr2087   1.961       .  S
O2070      C2071   1.257       .  A
C2071      O2072   1.275       .  A
C2071      C2116   1.445       .  S
O2072     Cr2088   2.043       .  S
O2073     Cr2088   2.017       .  S
O2073      C2074   1.266       .  A
C2074      O2075   1.258       .  A
C2074      C2308   1.448       .  S
O2075     Cr2089   1.985   1_545  S
O2076     Cr2089   1.986   1_545  S
O2076      C2077   1.258       .  A
C2077      C2352   1.423       .  S
O2078     Cr2087   1.983   1_565  S
O2078      C2086   1.261       .  A
O2079     Cr2087   1.988       .  S
O2079      C2080   1.256       .  A
C2080      O2081   1.265       .  A
C2080      C2188   1.455       .  S
O2081     Cr2088   2.025       .  S
O2082     Cr2088   2.027       .  S
O2082      C2083   1.270   1_545  A
C2083      O2084   1.257       .  A
C2083      C2133   1.433       .  S
O2084     Cr2089   1.958       .  S
O2085     Cr2089   2.002       .  S
O2085      C2086   1.262       .  A
C2086      C2129   1.430       .  S
Cr2087     O2090   1.767       .  S
Cr2088     O2090   1.775       .  S
Cr2089     O2090   1.769   1_565  S
O2091     Cr2109   1.973   1_655  S
O2091      C2099   1.258       .  A
O2092     Cr2109   1.991       .  S
O2092      C2093   1.257       .  A
C2093      O2094   1.260       .  A
C2093      C2210   1.445       .  S
O2094     Cr2110   2.009       .  S
O2095     Cr2110   2.024       .  S
O2095      C2096   1.269   1_455  A
C2096      O2097   1.256       .  A
C2096      C2136   1.432       .  S
O2097     Cr2111   1.962       .  S
O2098     Cr2111   2.005       .  S
O2098      C2099   1.263       .  A
C2099      C2126   1.426       .  S
O2100     Cr2109   1.996       .  S
O2100      C2108   1.262       .  A
O2101     Cr2109   1.947       .  S
O2101      C2102   1.253       .  A
C2102      O2103   1.275       .  A
C2102      C2123   1.439       .  S
O2103     Cr2110   2.046       .  S
O2104     Cr2110   2.002       .  S
O2104      C2105   1.265       .  A
C2105      O2106   1.262       .  A
C2105      C2398   1.441       .  S
O2106     Cr2111   1.992   1_455  S
O2107     Cr2111   1.984   1_455  S
O2107      C2108   1.259       .  A
C2108      C2423   1.429       .  S
Cr2109     O2112   1.765       .  S
Cr2110     O2112   1.776       .  S
Cr2111     O2112   1.762   1_655  S
C2113      C2114   1.196       .  T
C2115      C2116   1.212       .  T
C2117      C2118   1.211       .  T
C2119      C2120   1.210       .  T
C2121      C2122   1.207       .  T
C2123      C2124   1.210       .  T
C2125      C2126   1.201       .  T
C2127      C2128   1.214       .  T
C2129      C2130   1.202       .  T
C2131      C2132   1.212       .  T
C2133      C2134   1.205       .  T
C2135      C2136   1.204       .  T
C2137      C2138   1.201       .  T
C2139      C2140   1.200       .  T
C2141      C2142   1.204       .  T
C2143      C2144   1.203       .  T
C2145      C2146   1.198       .  T
C2147      C2148   1.219       .  T
C2149      C2150   1.206       .  T
C2151      C2152   1.211       .  T
C2153      C2154   1.201       .  T
C2155      C2156   1.204       .  T
C2157      C2158   1.206       .  T
C2159      C2160   1.201       .  T
C2161      C2162   1.211       .  T
C2163      C2164   1.197       .  T
C2165      C2166   1.205       .  T
C2167      C2168   1.203       .  T
C2169      C2170   1.202       .  T
C2171      C2172   1.209       .  T
C2173      C2174   1.203       .  T
C2175      C2176   1.203       .  T
C2177      C2178   1.201       .  T
C2179      C2180   1.204       .  T
C2181      C2182   1.200       .  T
C2183      C2184   1.201       .  T
C2185      C2186   1.204       .  T
C2187      C2188   1.219       .  T
C2189      C2190   1.212       .  T
C2191      C2192   1.204       .  T
C2193      C2194   1.205       .  T
C2195      C2196   1.207       .  T
C2197      C2198   1.202       .  T
C2199      C2200   1.201       .  T
C2201      C2202   1.200       .  T
C2203      C2204   1.203       .  T
C2205      C2206   1.200       .  T
C2207      C2208   1.213       .  T
C2209      C2210   1.212       .  T
C2211      C2212   1.199       .  T
C2213      C2214   1.200       .  T
C2215      C2216   1.205       .  T
C2217      C2218   1.211       .  T
C2219      C2220   1.210       .  T
C2221      C2222   1.202       .  T
C2223      C2224   1.218       .  T
C2225      C2226   1.206       .  T
C2227      C2228   1.218       .  T
C2229      C2230   1.201       .  T
C2231      C2232   1.206       .  T
C2233      C2234   1.201       .  T
C2235      C2236   1.197       .  T
C2237      C2238   1.208       .  T
C2239      C2240   1.204       .  T
C2241      C2242   1.209       .  T
C2243      C2244   1.212       .  T
C2245      C2246   1.210       .  T
C2247      C2248   1.199       .  T
C2249      C2250   1.202       .  T
C2251      C2252   1.207       .  T
C2253      C2254   1.200       .  T
C2255      C2256   1.209       .  T
C2257      C2258   1.207       .  T
C2259      C2260   1.201       .  T
C2261      C2262   1.204       .  T
C2263      C2264   1.212       .  T
C2265      C2266   1.206       .  T
C2267      C2268   1.204       .  T
C2269      C2270   1.214       .  T
C2271      C2272   1.214       .  T
C2273      C2274   1.203       .  T
C2275      C2276   1.209       .  T
C2277      C2278   1.206       .  T
C2279      C2280   1.213       .  T
C2281      C2282   1.209       .  T
C2283      C2284   1.208       .  T
C2285      C2286   1.213       .  T
C2287      C2288   1.199       .  T
C2289      C2290   1.213       .  T
C2291      C2292   1.205       .  T
C2293      C2294   1.211       .  T
C2295      C2296   1.205       .  T
C2297      C2298   1.205       .  T
C2299      C2300   1.212       .  T
C2301      C2302   1.211       .  T
C2303      C2304   1.201       .  T
C2305      C2306   1.204       .  T
C2307      C2308   1.215       .  T
C2309      C2310   1.203       .  T
C2311      C2312   1.206       .  T
C2313      C2314   1.215       .  T
C2315      C2316   1.204       .  T
C2317      C2318   1.201       .  T
C2319      C2320   1.205       .  T
C2321      C2322   1.212       .  T
C2323      C2324   1.205       .  T
C2325      C2326   1.202       .  T
C2327      C2328   1.210       .  T
C2329      C2330   1.219       .  T
C2331      C2332   1.212       .  T
C2333      C2334   1.211       .  T
C2335      C2336   1.196       .  T
C2337      C2338   1.204       .  T
C2339      C2340   1.208       .  T
C2341      C2342   1.201       .  T
C2343      C2344   1.208       .  T
C2345      C2346   1.212       .  T
C2347      C2348   1.214       .  T
C2349      C2350   1.202       .  T
C2351      C2352   1.199       .  T
C2353      C2354   1.208       .  T
C2355      C2356   1.211       .  T
C2357      C2358   1.203       .  T
C2359      C2360   1.210       .  T
C2361      C2362   1.213   1_455  T
C2363      C2364   1.198       .  T
C2365      C2366   1.209       .  T
C2367      C2368   1.205       .  T
C2369      C2370   1.203       .  T
C2371      C2372   1.210       .  T
C2373      C2374   1.204       .  T
C2375      C2376   1.219       .  T
C2377      C2378   1.206       .  T
C2379      C2380   1.209       .  T
C2381      C2382   1.208       .  T
C2383      C2384   1.209       .  T
C2385      C2386   1.210       .  T
C2387      C2388   1.201       .  T
C2389      C2390   1.211       .  T
C2391      C2392   1.212       .  T
C2393      C2394   1.197       .  T
C2395      C2396   1.206       .  T
C2397      C2398   1.210       .  T
C2399      C2400   1.207       .  T
C2401      C2402   1.202       .  T
C2403      C2404   1.203       .  T
C2405      C2406   1.204       .  T
C2407      C2408   1.205       .  T
C2409      C2410   1.206       .  T
C2411      C2412   1.208       .  T
C2413      C2414   1.211       .  T
C2415      C2416   1.203       .  T
C2417      C2418   1.205       .  T
C2419      C2420   1.211       .  T
C2421      C2422   1.203       .  T
C2423      C2424   1.203       .  T
C2425      C2426   1.208       .  T
C2427      C2428   1.216       .  T
C2429      C2430   1.204       .  T
C2431      C2432   1.208       .  T
C2433      C2434   1.205       .  T
C2435      C2436   1.203       .  T
C2437      C2438   1.210       .  T
C2439      C2440   1.203       .  T
C2441      C2442   1.209       .  T
C2443      C2444   1.209       .  T
C2445      C2446   1.211       .  T
C2447      C2448   1.205       .  T
C2449      C2450   1.205       .  T
C2451      C2452   1.201       .  T
C2453      C2454   1.201       .  T
C2455      C2456   1.207       .  T
C2457      C2458   1.202       .  T
C2459      C2460   1.213       .  T
C2461      C2462   1.210       .  T
C2463      C2464   1.212       .  T
C2465      C2466   1.197       .  T
C2467      C2468   1.203       .  T
C2469      C2470   1.207       .  T
C2471      C2472   1.207       .  T
C2473      C2474   1.208       .  T
C2475      C2476   1.209       .  T
C2477      C2478   1.200       .  T
C2479      C2480   1.214       .  T
C2481      C2482   1.197       .  T
C2483      C2484   1.204       .  T
C2485      C2486   1.218       .  T
C2487      C2488   1.210       .  T
C2489      C2490   1.213       .  T
C2491      C2492   1.210       .  T
C2493      C2494   1.206       .  T
C2495      C2496   1.201       .  T
C2497      C2498   1.211       .  T
C2499      C2500   1.208       .  T
C2501      C2502   1.210       .  T
C2503      C2504   1.207       .  T
C2505      C2506   1.206       .  T
C2507      C2508   1.203       .  T
C2509      C2510   1.202       .  T
C2511      C2512   1.207       .  T
C2513      C2514   1.211       .  T
C2515      C2516   1.213       .  T
C2517      C2518   1.207       .  T
C2519      C2520   1.209       .  T
C2521      C2522   1.211       .  T
C2523      C2524   1.211       .  T
C2525      C2526   1.203       .  T
C2527      C2528   1.207       .  T
C2529      C2530   1.210       .  T
C2531      C2532   1.206       .  T
C2533      C2534   1.205       .  T
C2535      C2536   1.211       .  T
C2537      C2538   1.205       .  T
C2539      C2540   1.200       .  T
C2541      C2542   1.208       .  T
C2543      C2544   1.204       .  T
C2545      C2546   1.210       .  T
C2547      C2548   1.204       .  T
C2549      C2550   1.207       .  T
C2551      C2552   1.219       .  T
C2553      C2554   1.206       .  T
C2555      C2556   1.214       .  T
C2557      C2558   1.203       .  T
C2559      C2560   1.204       .  T
C2561      C2562   1.199       .  T
C2563      C2564   1.207       .  T
C2565      C2566   1.214       .  T
C2567      C2568   1.200       .  T
C2569      C2570   1.197       .  T
C2571      C2572   1.208       .  T
C2573      C2574   1.203       .  T
C2575      C2576   1.219       .  T
C2577      C2578   1.205       .  T
C2579      C2580   1.212       .  T
C2581      C2582   1.209       .  T
C2583      C2584   1.203       .  T
C2585      C2586   1.203       .  T
C2587      C2588   1.206       .  T
C2589      C2590   1.214       .  T
C2591      C2592   1.204       .  T
C2593      C2594   1.199       .  T
C2595      C2596   1.212       .  T
C2597      C2598   1.216       .  T
C2599      C2600   1.214       .  T
C2601      C2602   1.197       .  T
C2603      C2604   1.214       .  T
C2605      C2606   1.203       .  T
C2607      C2608   1.208       .  T
C2609      C2610   1.214       .  T
C2611      C2612   1.203       .  T
C2613      C2614   1.203       .  T
C2615      C2616   1.209       .  T
C2617      C2618   1.202       .  T
C2619      C2620   1.212       .  T
C2621      C2622   1.202       .  T
C2623      C2624   1.202       .  T
C2625      C2626   1.209       .  T
C2627      C2628   1.205       .  T
C2629      C2630   1.213       .  T
C2631      C2632   1.204       .  T
C2633      C2634   1.202       .  T
C2635      C2636   1.211       .  T
C2637      C2638   1.216       .  T
C2639      C2640   1.194       .  T
C2641      C2642   1.201       .  T
C2643      C2644   1.216       .  T
C2645      C2646   1.212       .  T
C2647      C2648   1.207       .  T
C2649      C2650   1.197       .  T
C2651      C2652   1.203       .  T
C2653      C2654   1.207       .  T
C2655      C2656   1.211       .  T
C2657      C2658   1.200       .  T
C2659      C2660   1.206       .  T
C2661      C2662   1.204       .  T
C2663      C2664   1.201       .  T
C2665      C2666   1.212       .  T
C2667      C2668   1.208       .  T
C2669      C2670   1.204       .  T
C2671      C2672   1.206       .  T
C2673      C2674   1.207       .  T
C2675      C2676   1.205       .  T
C2677      C2678   1.209       .  T
C2679      C2680   1.205       .  T
C2681      C2682   1.204       .  T
C2683      C2684   1.207       .  T
C2685      C2686   1.199       .  T
C2687      C2688   1.208       .  T
