geometry optimzed in LAMMPS
_audit_creation_date              2020-11-30 
_audit_creation_method            'lammps2cif' 
_symmetry_space_group_name_H-M    'P1' 
_symmetry_Int_Tables_number       1 
_symmetry_cell_setting            triclinic 
loop_ 
_symmetry_equiv_pos_as_xyz 
  x,y,z 
_cell_length_a                    58.54597394 
_cell_length_b                    58.761717648325806 
_cell_length_c                    58.640145558826184 
_cell_angle_alpha                 90.10585433372371 
_cell_angle_beta                  90.53449842962922 
_cell_angle_gamma                 90.04328478367995 
loop_ 
_atom_site_label 
_atom_site_type_symbol 
_atom_site_fract_x 
_atom_site_fract_y 
_atom_site_fract_z 
_atom_site_charge 
C1          C  0.34620751  0.64017767  0.15165706    -0.01600
C2          C  0.64955178  0.34580217  0.12789568    -0.01600
C3          C  0.66005749  0.63666438  0.15079916    -0.01600
C4          C  0.34324825  0.34856777  0.13926396    -0.01600
O5          O  0.52295755  0.52305243  0.16035184    -0.72100
O6          O  0.47341224  0.47582899  0.15299459    -0.73100
O7          O  0.47426254  0.52347658  0.15942670    -0.61700
O8          O  0.52189036  0.47533020  0.15329773    -0.70100
O9          O  0.52202368  0.47004710  0.19064037    -0.69600
O10         O  0.47360202  0.51891612  0.19671290    -0.60900
O11         O  0.47345300  0.47095009  0.19032313    -0.73400
O12         O  0.52274095  0.51793667  0.19785556    -0.72200
Cu13       Cu  0.49815753  0.49964182  0.15526449     1.04600
Cu14       Cu  0.49795573  0.49432275  0.19520833     1.04300
C15         C  0.53075595  0.52774197  0.18025584     0.94100
C16         C  0.46546889  0.46591755  0.17065069     0.93300
C17         C  0.46589566  0.52870890  0.17870324     0.85400
C18         C  0.52963207  0.46501971  0.17088302     0.91700
C19         C  0.34250555  0.35934356  0.83876740    -0.01600
C20         C  0.63996032  0.34893373  0.83930419    -0.01600
C21         C  0.63696395  0.64828732  0.84366410    -0.01600
C22         C  0.35871043  0.64551435  0.84885989    -0.01600
O23         O  0.27690326  0.47495669  0.01937735    -0.72100
O24         O  0.27906440  0.52490328  0.97087321    -0.73100
O25         O  0.27667297  0.47601798  0.97022949    -0.61700
O26         O  0.27831221  0.52381526  0.01974893    -0.70100
O27         O  0.31621475  0.52250685  0.02009004    -0.69600
O28         O  0.31451605  0.47486117  0.97130023    -0.60900
O29         O  0.31667347  0.52236933  0.97226283    -0.73400
O30         O  0.31470135  0.47447795  0.01936201    -0.72200
Cu31       Cu  0.27629611  0.49990992  0.99505736     1.04600
Cu32       Cu  0.31670480  0.49843882  0.99579585     1.04300
C33         C  0.29588522  0.46727094  0.02728842     0.94100
C34         C  0.29869148  0.53153176  0.96399557     0.93300
C35         C  0.29550949  0.46815992  0.96274227     0.85400
C36         C  0.29754695  0.53096316  0.02733390     0.91700
O37         O  0.52989587  0.70126953  0.98429810    -0.72100
O38         O  0.47977858  0.69520854  0.03072912    -0.73100
O39         O  0.52840157  0.69266990  0.03208118    -0.61700
O40         O  0.48078430  0.70357673  0.98261821    -0.70100
O41         O  0.47921604  0.66630722  0.97658349    -0.69600
O42         O  0.52643541  0.65565790  0.02553432    -0.60900
O43         O  0.47808619  0.65815063  0.02441280    -0.73400
O44         O  0.52808038  0.66411369  0.97815106    -0.72200
Cu45       Cu  0.50473824  0.69950601  0.00761731     1.04600
Cu46       Cu  0.50285821  0.65982940  0.00087197     1.04300
C47         C  0.53739508  0.68340887  0.97439205     0.94100
C48         C  0.47124673  0.67573927  0.03526911     0.93300
C49         C  0.53487350  0.67235727  0.03669361     0.85400
C50         C  0.47242868  0.68644118  0.97193127     0.91700
O51         O  0.67443095  0.52050006  0.01657671    -0.72100
O52         O  0.67203215  0.47285511  0.96659534    -0.73100
O53         O  0.67497076  0.47242574  0.01524859    -0.61700
O54         O  0.67098946  0.52143104  0.96814013    -0.70100
O55         O  0.70879182  0.52207397  0.96555593    -0.69600
O56         O  0.71270997  0.47271918  0.01376385    -0.60900
O57         O  0.70987362  0.47315300  0.96476166    -0.73400
O58         O  0.71212701  0.52105021  0.01440618    -0.72200
Cu59       Cu  0.67183168  0.49674474  0.99163631     1.04600
Cu60       Cu  0.71221108  0.49725561  0.98946961     1.04300
C61         C  0.69375742  0.52799797  0.02372227     0.94100
C62         C  0.69057533  0.46542834  0.95791398     0.93300
C63         C  0.69423477  0.46531282  0.02261959     0.85400
C64         C  0.68915360  0.52972598  0.95963037     0.91700
O65         O  0.51200913  0.28797266  0.96108736    -0.72100
O66         O  0.46505712  0.28041377  0.01164944    -0.73100
O67         O  0.46400401  0.28097084  0.96182846    -0.61700
O68         O  0.51379940  0.28678038  0.01025794    -0.70100
O69         O  0.50823020  0.32400296  0.01162227    -0.69600
O70         O  0.45953437  0.31842957  0.96288100    -0.60900
O71         O  0.46035440  0.31789151  0.01158194    -0.73400
O72         O  0.50698577  0.32508249  0.96329556    -0.72200
Cu73       Cu  0.48883992  0.28262149  0.98627052     1.04600
Cu74       Cu  0.48354896  0.32251027  0.98743271     1.04300
C75         C  0.51653582  0.30807629  0.95392441     0.94100
C76         C  0.45547123  0.29834577  0.01955650     0.93300
C77         C  0.45461074  0.29907217  0.95410834     0.85400
C78         C  0.51884478  0.30631565  0.01861457     0.91700
O79         O  0.47173167  0.51851697  0.76817004    -0.72100
O80         O  0.52378340  0.47206795  0.76992057    -0.73100
O81         O  0.47487784  0.46945621  0.77091822    -0.61700
O82         O  0.52059160  0.52079053  0.76625856    -0.70100
O83         O  0.52063355  0.52308792  0.80399862    -0.69600
O84         O  0.47636522  0.47142336  0.80858829    -0.60900
O85         O  0.52417267  0.47527522  0.80734157    -0.73400
O86         O  0.47281730  0.51946532  0.80590882    -0.72200
Cu87       Cu  0.49768669  0.49507575  0.76740841     1.04600
Cu88       Cu  0.49857258  0.49738327  0.80764508     1.04300
C89         C  0.46425407  0.52641829  0.78708767     0.94100
C90         C  0.53223826  0.46637714  0.78935729     0.93300
C91         C  0.46867045  0.46207186  0.79042372     0.85400
C92         C  0.52745897  0.53031504  0.78466315     0.91700
C93         C  0.67570779  0.14484082  0.62923589    -0.01600
C94         C  0.66286524  0.13741495  0.34451806    -0.01600
C95         C  0.37241480  0.14968455  0.64836377    -0.01600
C96         C  0.37057352  0.14536006  0.34292094    -0.01600
O97         O  0.54164164  0.16720490  0.47747059    -0.72100
O98         O  0.49225893  0.17568631  0.52398859    -0.73100
O99         O  0.49374486  0.17042832  0.47611366    -0.61700
O100        O  0.54057927  0.17282198  0.52581503    -0.70100
O101        O  0.54289678  0.21021377  0.52185262    -0.69600
O102        O  0.49589620  0.20760100  0.47121767    -0.60900
O103        O  0.49412607  0.21317745  0.51986991    -0.73400
O104        O  0.54441314  0.20460856  0.47325182    -0.72200
Cu105      Cu  0.51698590  0.17030778  0.50104579     1.04600
Cu106      Cu  0.51942727  0.21026060  0.49646543     1.04300
C107        C  0.55045206  0.18444547  0.46763494     0.94100
C108        C  0.48522574  0.19560147  0.52910159     0.93300
C109        C  0.48763125  0.18833338  0.46533511     0.85400
C110        C  0.54910932  0.19189508  0.53189553     0.91700
C111        C  0.65189442  0.84468325  0.34451493    -0.01600
C112        C  0.36711942  0.84664034  0.34972937    -0.01600
C113        C  0.37467464  0.85140092  0.65053303    -0.01600
C114        C  0.66838659  0.84732058  0.63994403    -0.01600
O115        O  0.73993434  0.01581866  0.51154745    -0.72100
O116        O  0.73093066  0.96660744  0.46418373    -0.73100
O117        O  0.73262772  0.01508085  0.46309534    -0.61700
O118        O  0.73780705  0.96711708  0.51256428    -0.70100
O119        O  0.70022751  0.96887864  0.51722711    -0.69600
O120        O  0.69548325  0.01588537  0.46879048    -0.60900
O121        O  0.69358099  0.96806284  0.46933961    -0.73400
O122        O  0.70243761  0.01676837  0.51678984    -0.72200
Cu123      Cu  0.73670336  0.99112310  0.48770375     1.04600
Cu124      Cu  0.69671220  0.99249780  0.49322486     1.04300
C125        C  0.72250890  0.02390503  0.52170488     0.94100
C126        C  0.71082631  0.95973212  0.45902620     0.93300
C127        C  0.71282722  0.02289077  0.45791681     0.85400
C128        C  0.71960973  0.96042655  0.52245622     0.91700
O129        O  0.49938170  0.02219355  0.67261994    -0.72100
O130        O  0.54715983  0.97384970  0.67303432    -0.73100
O131        O  0.49910046  0.97433298  0.67514537    -0.61700
O132        O  0.54747913  0.02163759  0.67026216    -0.70100
O133        O  0.55028218  0.02499965  0.70770977    -0.69600
O134        O  0.50102638  0.97575880  0.71287386    -0.60900
O135        O  0.55026198  0.97634727  0.71068565    -0.73400
O136        O  0.50080765  0.02486302  0.71016343    -0.72200
Cu137      Cu  0.52322491  0.99798175  0.67160595     1.04600
Cu138      Cu  0.52566253  0.00061468  0.71179150     1.04300
C139        C  0.49210713  0.03109463  0.69107840     0.94100
C140        C  0.55637548  0.96747725  0.69176867     0.93300
C141        C  0.49218974  0.96754951  0.69452223     0.85400
C142        C  0.55694534  0.03068903  0.68777378     0.91700
O143        O  0.30843956  0.02586828  0.52310300    -0.72100
O144        O  0.31211420  0.97730411  0.47455464    -0.73100
O145        O  0.31270600  0.97781569  0.52388167    -0.61700
O146        O  0.30856226  0.02605448  0.47401901    -0.70100
O147        O  0.34624927  0.02856373  0.47495754    -0.69600
O148        O  0.35043303  0.98048942  0.52301613    -0.60900
O149        O  0.34963515  0.98046079  0.47450497    -0.73400
O150        O  0.34620141  0.02806356  0.52335409    -0.72200
Cu151      Cu  0.30908343  0.00163956  0.49880350     1.04600
Cu152      Cu  0.34934591  0.00450880  0.49888956     1.04300
C153        C  0.32689793  0.03412714  0.53139078     0.94100
C154        C  0.33141254  0.97115231  0.46666447     0.93300
C155        C  0.33239468  0.97201662  0.53162398     0.85400
C156        C  0.32705636  0.03502568  0.46672647     0.91700
O157        O  0.53283278  0.01986064  0.26474344    -0.72100
O158        O  0.48496232  0.96836682  0.26245587    -0.73100
O159        O  0.48342798  0.01805583  0.26146786    -0.61700
O160        O  0.53430721  0.97068269  0.26516516    -0.70100
O161        O  0.53230065  0.97163147  0.30287366    -0.69600
O162        O  0.48110461  0.01780792  0.29918717    -0.60900
O163        O  0.48361130  0.96924163  0.30021360    -0.73400
O164        O  0.52964077  0.02048721  0.30234390    -0.72200
Cu165      Cu  0.50890426  0.99420671  0.26207055     1.04600
Cu166      Cu  0.50659752  0.99478638  0.30235099     1.04300
C167        C  0.53866422  0.02825517  0.28416841     0.94100
C168        C  0.47699366  0.96064751  0.28124806     0.93300
C169        C  0.47433490  0.02539520  0.27984964     0.85400
C170        C  0.54160544  0.96406118  0.28470180     0.91700
O171        O  0.48576256  0.80885400  0.52554295    -0.72100
O172        O  0.53070989  0.81361927  0.47599150    -0.73100
O173        O  0.48321708  0.80988289  0.47776964    -0.61700
O174        O  0.53388250  0.81233815  0.52375586    -0.70100
O175        O  0.53675921  0.77477365  0.52271448    -0.69600
O176        O  0.48500507  0.77237604  0.47607413    -0.60900
O177        O  0.53345723  0.77623708  0.47373444    -0.73400
O178        O  0.48763559  0.77110124  0.52470265    -0.72200
Cu179      Cu  0.50833423  0.81234824  0.50090206     1.04600
Cu180      Cu  0.51089007  0.77220011  0.49937315     1.04300
C181        C  0.47893562  0.78949071  0.53241423     0.94100
C182        C  0.53892343  0.79596473  0.46642210     0.93300
C183        C  0.47605281  0.79106423  0.46936316     0.85400
C184        C  0.54360985  0.79403866  0.53039601     0.91700
C185        C  0.86790277  0.34546233  0.64526113    -0.01600
C186        C  0.85213674  0.34023638  0.34951584    -0.01600
C187        C  0.86033500  0.64592528  0.35738472    -0.01600
C188        C  0.85700697  0.63662695  0.64275637    -0.01600
O189        O  0.03371135  0.68027656  0.48527402    -0.72100
O190        O  0.98395597  0.67979015  0.53090379    -0.73100
O191        O  0.98568959  0.67825510  0.48301972    -0.61700
O192        O  0.03218114  0.68251750  0.53339089    -0.70100
O193        O  0.03094967  0.72017862  0.53254787    -0.69600
O194        O  0.98399750  0.71580552  0.48162687    -0.60900
O195        O  0.98165896  0.71743054  0.53026681    -0.73400
O196        O  0.03277143  0.71800852  0.48363310    -0.72200
Cu197      Cu  0.00901502  0.67901246  0.50827304     1.04600
Cu198      Cu  0.00733370  0.71926577  0.50703145     1.04300
C199        C  0.04077176  0.69892267  0.47681708     0.94100
C200        C  0.97430169  0.69813543  0.53721571     0.93300
C201        C  0.97728935  0.69638988  0.47433549     0.85400
C202        C  0.03909192  0.70179699  0.54092568     0.91700
O203        O  0.03221188  0.47167683  0.71092935    -0.72100
O204        O  0.98775612  0.52395845  0.71738207    -0.73100
O205        O  0.98264875  0.47545813  0.71414687    -0.61700
O206        O  0.03657630  0.51994306  0.71322388    -0.70100
O207        O  0.03227100  0.52200607  0.67583401    -0.69600
O208        O  0.98071534  0.47797608  0.67660760    -0.60900
O209        O  0.98429573  0.52556123  0.67970684    -0.73400
O210        O  0.02914908  0.47445094  0.67352344    -0.72200
Cu211      Cu  0.00986130  0.49762236  0.71532493     1.04600
Cu212      Cu  0.00649257  0.50002641  0.67524358     1.04300
C213        C  0.03844302  0.46530815  0.69110011     0.94100
C214        C  0.97877077  0.53269231  0.69949173     0.93300
C215        C  0.97278818  0.47023791  0.69518601     0.85400
C216        C  0.04303506  0.52779647  0.69396087     0.91700
O217        O  0.98396885  0.46763939  0.34146232    -0.72100
O218        O  0.03659556  0.51197456  0.34035957    -0.73100
O219        O  0.98795368  0.51583756  0.34152264    -0.61700
O220        O  0.03240050  0.46380535  0.34050608    -0.70100
O221        O  0.03170247  0.46333531  0.30284011    -0.69600
O222        O  0.98622896  0.51558873  0.30396122    -0.60900
O223        O  0.03513006  0.51208179  0.30263798    -0.73400
O224        O  0.98272378  0.46704959  0.30381460    -0.72200
Cu225      Cu  0.01027952  0.48980666  0.34220218     1.04600
Cu226      Cu  0.00892484  0.48950869  0.30197910     1.04300
C227        C  0.97478029  0.46045595  0.32295944     0.94100
C228        C  0.04412601  0.51919371  0.32128462     0.93300
C229        C  0.97974232  0.52398332  0.32297078     0.85400
C230        C  0.03926094  0.45526543  0.32170612     0.91700
O231        O  0.97745252  0.26878092  0.46498988    -0.72100
O232        O  0.02623777  0.26533720  0.51558755    -0.73100
O233        O  0.97760890  0.26891574  0.51415447    -0.61700
O234        O  0.02611866  0.26384453  0.46625213    -0.70100
O235        O  0.02860915  0.30146004  0.46513236    -0.69600
O236        O  0.98102341  0.30655183  0.51348937    -0.60900
O237        O  0.02892696  0.30278570  0.51329373    -0.73400
O238        O  0.98105876  0.30609651  0.46551575    -0.72200
Cu239      Cu  0.00175940  0.26528010  0.49023787     1.04600
Cu240      Cu  0.00505737  0.30538688  0.48934303     1.04300
C241        C  0.97164712  0.28841524  0.45724655     0.94100
C242        C  0.03475073  0.28419492  0.52277823     0.93300
C243        C  0.97183005  0.28854849  0.52142476     0.85400
C244        C  0.03456615  0.28193059  0.45770675     0.91700
O245        O  0.78045414  0.46376410  0.47049039    -0.72100
O246        O  0.78836023  0.51311939  0.51792057    -0.73100
O247        O  0.78480055  0.51294885  0.46926867    -0.61700
O248        O  0.78551125  0.46421065  0.51934303    -0.70100
O249        O  0.82313271  0.46303367  0.51591812    -0.69600
O250        O  0.82238223  0.50915585  0.46654106    -0.60900
O251        O  0.82579083  0.51120278  0.51450829    -0.73400
O252        O  0.81813302  0.46081430  0.46838930    -0.72200
Cu253      Cu  0.78337764  0.48863527  0.49432548     1.04600
Cu254      Cu  0.82355143  0.48598805  0.49121310     1.04300
C255        C  0.79814734  0.45404930  0.46243899     0.94100
C256        C  0.80818387  0.52027092  0.52361580     0.93300
C257        C  0.80383667  0.51863222  0.46019251     0.85400
C258        C  0.80493697  0.45590919  0.52529263     0.91700
C259        C  0.14688461  0.34148950  0.63465452    -0.01600
C260        C  0.15318986  0.64687234  0.35841165    -0.01600
C261        C  0.16262925  0.64286713  0.64205618    -0.01600
C262        C  0.15670790  0.33199158  0.35930297    -0.01600
O263        O  0.23054339  0.46671969  0.52103429    -0.72100
O264        O  0.22191975  0.51545188  0.47200907    -0.73100
O265        O  0.23008323  0.51605299  0.52013866    -0.61700
O266        O  0.22327136  0.46658529  0.47285080    -0.70100
O267        O  0.18583053  0.46598916  0.47864995    -0.69600
O268        O  0.19261317  0.51528706  0.52557985    -0.60900
O269        O  0.18484121  0.51411669  0.47793927    -0.73400
O270        O  0.19304514  0.46690438  0.52630727    -0.72200
Cu271      Cu  0.22784554  0.49122544  0.49634386     1.04600
Cu272      Cu  0.18787715  0.49056272  0.50233296     1.04300
C273        C  0.21279943  0.45901784  0.53110003     0.94100
C274        C  0.20169625  0.52256660  0.46729540     0.93300
C275        C  0.21229862  0.52368593  0.53000785     0.85400
C276        C  0.20345255  0.45860047  0.46833637     0.91700
C277        C  0.25374217  0.23767577  0.24484551    -0.01600
C278        C  0.75225620  0.24526093  0.23505170    -0.01600
C279        C  0.25137924  0.75205611  0.25190569    -0.01600
C280        C  0.25152429  0.24283108  0.74099733    -0.01600
C281        C  0.75667007  0.25286753  0.74694684    -0.01600
C282        C  0.76352339  0.74557429  0.24563967    -0.01600
C283        C  0.26153669  0.75163151  0.74312174    -0.01600
C284        C  0.15126576  0.14759215  0.13093985    -0.01600
C285        C  0.15226689  0.12713657  0.83525257    -0.01600
C286        C  0.84979870  0.15272560  0.11998090    -0.01600
C287        C  0.14915912  0.84555805  0.14232298    -0.01600
C288        C  0.86941706  0.82894999  0.13197959    -0.01600
O289        O  0.02034888  0.02609161  0.18168146    -0.72100
O290        O  0.97435526  0.97425969  0.18383888    -0.73100
O291        O  0.02297924  0.97762328  0.18273326    -0.61700
O292        O  0.97164937  0.02336255  0.18372045    -0.70100
O293        O  0.96922085  0.02164971  0.14596901    -0.69600
O294        O  0.02257499  0.97820247  0.14492881    -0.60900
O295        O  0.97462776  0.97360430  0.14625009    -0.73400
O296        O  0.01717017  0.02578196  0.14420491    -0.72200
Cu297      Cu  0.99732124  0.00037104  0.18439430     1.04600
Cu298      Cu  0.99578011  0.99979709  0.14412328     1.04300
C299        C  0.02617236  0.03399189  0.16221183     0.94100
C300        C  0.96755108  0.96541041  0.16494899     0.93300
C301        C  0.03114663  0.97103523  0.16370659     0.85400
C302        C  0.96241559  0.02975548  0.16497678     0.91700
C303        C  0.15316112  0.84688988  0.84632673    -0.01600
O304        O  0.22392287  0.01826935  0.02081756    -0.72100
O305        O  0.22241996  0.96955523  0.97151046    -0.73100
O306        O  0.22468466  0.01871933  0.97165221    -0.61700
O307        O  0.22136790  0.96963367  0.02080256    -0.70100
O308        O  0.18362120  0.97208457  0.01934147    -0.69600
O309        O  0.18686571  0.02064343  0.97129971    -0.60900
O310        O  0.18475721  0.97198630  0.97073831    -0.73400
O311        O  0.18616517  0.01983051  0.01956527    -0.72200
Cu312      Cu  0.22448269  0.99397310  0.99615718     1.04600
Cu313      Cu  0.18414027  0.99616531  0.99511004     1.04300
C314        C  0.20515647  0.02647207  0.02820071     0.94100
C315        C  0.20317316  0.96293772  0.96339055     0.93300
C316        C  0.20613967  0.02754443  0.96398008     0.85400
C317        C  0.20172937  0.96373339  0.02824846     0.91700
C318        C  0.84469504  0.13428335  0.84721766    -0.01600
O319        O  0.98087791  0.21223980  0.00287096    -0.72100
O320        O  0.02918717  0.20596703  0.95371353    -0.73100
O321        O  0.98031511  0.20420879  0.95453248    -0.61700
O322        O  0.02990831  0.21427670  0.00241361    -0.70100
O323        O  0.03135193  0.17696612  0.00814698    -0.69600
O324        O  0.98278502  0.16734454  0.96082805    -0.60900
O325        O  0.03055489  0.16897843  0.96066178    -0.73400
O326        O  0.98346861  0.17517947  0.00804699    -0.72200
Cu327      Cu  0.00509389  0.21060269  0.97817023     1.04600
Cu328      Cu  0.00713141  0.17098979  0.98463938     1.04300
C329        C  0.97438157  0.19422395  0.01317287     0.94100
C330        C  0.03704585  0.18615490  0.94915804     0.93300
C331        C  0.97363260  0.18388940  0.95013511     0.85400
C332        C  0.03812230  0.19704946  0.01298737     0.91700
C333        C  0.85920916  0.82668363  0.86148265    -0.01600
O334        O  0.99556745  0.75191084  0.02385590    -0.72100
O335        O  0.04287342  0.76333064  0.97459667    -0.73100
O336        O  0.04427108  0.75595030  0.02295648    -0.61700
O337        O  0.99430965  0.75873539  0.97509892    -0.70100
O338        O  0.99118540  0.79595586  0.98093323    -0.69600
O339        O  0.04106087  0.79328203  0.02783498    -0.60900
O340        O  0.03895249  0.80020874  0.98064130    -0.73400
O341        O  0.99326224  0.78926609  0.02898128    -0.72200
Cu342      Cu  0.01931958  0.75607117  0.99893981     1.04600
Cu343      Cu  0.01594513  0.79585218  0.00480040     1.04300
C344        C  0.98749500  0.76910740  0.03455894     0.94100
C345        C  0.04826727  0.78387930  0.96979132     0.93300
C346        C  0.05067221  0.77439783  0.03265650     0.85400
C347        C  0.98536252  0.77794907  0.97013159     0.91700
O348        O  0.79528563  0.00615788  0.97154534    -0.72100
O349        O  0.78913303  0.95768911  0.02003638    -0.73100
O350        O  0.79330692  0.00637277  0.01985019    -0.61700
O351        O  0.79052646  0.95755084  0.97150981    -0.70100
O352        O  0.82830594  0.95507037  0.97297747    -0.69600
O353        O  0.83094403  0.00320930  0.02145821    -0.60900
O354        O  0.82700863  0.95522612  0.02102635    -0.73400
O355        O  0.83278380  0.00298388  0.97373100    -0.72200
Cu356      Cu  0.79066967  0.98202340  0.99567891     1.04600
Cu357      Cu  0.83098488  0.97893870  0.99735809     1.04300
C358        C  0.81519127  0.01256063  0.96525799     0.94100
C359        C  0.80748436  0.94886185  0.02801659     0.93300
C360        C  0.81259426  0.01280700  0.02803561     0.85400
C361        C  0.80914164  0.94875176  0.96451511     0.91700
O362        O  0.97268835  0.00962811  0.82191340    -0.72100
O363        O  0.02212237  0.96185363  0.81854773    -0.73100
O364        O  0.02107608  0.01021449  0.81876088    -0.61700
O365        O  0.97403664  0.96147852  0.82285401    -0.70100
O366        O  0.96994074  0.96035803  0.78528698    -0.69600
O367        O  0.01843710  0.01034163  0.78110621    -0.60900
O368        O  0.01877133  0.96157416  0.78080160    -0.73400
O369        O  0.96949816  0.00905562  0.78414852    -0.72200
Cu370      Cu  0.99760486  0.98582932  0.82175930     1.04600
Cu371      Cu  0.99405841  0.98533332  0.78146027     1.04300
C372        C  0.96328455  0.01674954  0.80348446     0.94100
C373        C  0.02817351  0.95422554  0.79906631     0.93300
C374        C  0.02721710  0.01827098  0.79962720     0.85400
C375        C  0.96446508  0.95308560  0.80511025     0.91700
C376        C  0.75446578  0.73687188  0.74781697    -0.01600
C377        C  0.83420379  0.85747485  0.91597503    -0.11000
C378        C  0.81862311  0.87185460  0.90534348     0.11600
C379        C  0.81219464  0.86771743  0.88264782    -0.02800
C380        C  0.82408797  0.85102005  0.87036416    -0.05600
C381        C  0.84255492  0.83799525  0.87981159    -0.16300
C382        C  0.84491901  0.83940504  0.90448490     0.02600
C383        C  0.81159897  0.89249563  0.91793057     0.12500
C384        C  0.79361517  0.88175280  0.87119995     0.63200
H385        H  0.82050712  0.85022504  0.85239688     0.12600
C386        C  0.85635754  0.82315604  0.92125122     0.55300
H387        H  0.83779990  0.86031639  0.93396514     0.08400
C388        C  0.79602052  0.89222725  0.93630003    -0.05500
C389        C  0.79472094  0.91153398  0.95046540    -0.06200
C390        C  0.80865943  0.93065204  0.94696147    -0.15800
C391        C  0.82274626  0.93152195  0.92748980    -0.01400
C392        C  0.82411643  0.91226885  0.91342598    -0.08900
C393        C  0.78076413  0.87215763  0.94197160     0.65400
H394        H  0.78341625  0.91125919  0.96499330     0.10800
C395        C  0.83634759  0.95261673  0.92152574     0.63800
H396        H  0.83598662  0.91206145  0.89935910     0.08200
F397        F  0.84088023  0.81731926  0.93799878    -0.19300
F398        F  0.87457228  0.83412701  0.93169128    -0.15500
F399        F  0.86365359  0.80310427  0.91217277    -0.19000
F400        F  0.80070261  0.90409440  0.86918390    -0.22400
F401        F  0.77401046  0.88104469  0.88416303    -0.23900
F402        F  0.78823376  0.87364044  0.84962906    -0.17900
F403        F  0.85421790  0.95529647  0.93684413    -0.20300
F404        F  0.82231400  0.97153789  0.92221978    -0.21500
F405        F  0.84541123  0.95121002  0.89983994    -0.18700
F406        F  0.75822689  0.87922717  0.94177200    -0.18800
F407        F  0.78621419  0.86425367  0.96354693    -0.22600
F408        F  0.78270969  0.85430557  0.92673911    -0.24200
C409        C  0.90497427  0.78286643  0.88754352    -0.11000
C410        C  0.91690373  0.79776171  0.90192198     0.11600
C411        C  0.91261384  0.82124325  0.90017484    -0.02800
C412        C  0.89430034  0.82859141  0.88645970    -0.05600
C413        C  0.88022481  0.81386242  0.87298774    -0.16300
C414        C  0.88787784  0.79022080  0.87189867     0.02600
C415        C  0.93436591  0.78862089  0.91825082     0.12500
C416        C  0.92697642  0.83865379  0.91320379     0.63200
H417        H  0.89015296  0.84643771  0.88721242     0.12600
C418        C  0.88194350  0.77147086  0.85462065     0.55300
H419        H  0.90989835  0.76506648  0.88793668     0.08400
C420        C  0.92832959  0.77899202  0.93958991    -0.05500
C421        C  0.94571181  0.77436684  0.95570653    -0.06200
C422        C  0.96853620  0.77971341  0.95134254    -0.15800
C423        C  0.97473668  0.78819501  0.92970391    -0.01400
C424        C  0.95753629  0.79173609  0.91315958    -0.08900
C425        C  0.90362688  0.77501578  0.94600659     0.65400
H426        H  0.94148533  0.76780015  0.97239472     0.10800
C427        C  0.99935024  0.79427645  0.92456032     0.63800
H428        H  0.96190301  0.79837364  0.89654561     0.08200
F429        F  0.87211444  0.75314001  0.86558723    -0.19300
F430        F  0.86801336  0.77776877  0.83701281    -0.15500
F431        F  0.90193537  0.76381228  0.84476387    -0.19000
F432        F  0.94899605  0.83868480  0.90491008    -0.22400
F433        F  0.92751227  0.83342600  0.93618226    -0.23900
F434        F  0.91848071  0.86051760  0.91093799    -0.17900
F435        F  0.00202315  0.80126259  0.90221538    -0.20300
F436        F  0.01318599  0.77554251  0.92818819    -0.21500
F437        F  0.00640876  0.81183188  0.93870121    -0.18700
F438        F  0.90172882  0.76423634  0.96687847    -0.18800
F439        F  0.89285022  0.76155693  0.92982488    -0.22600
F440        F  0.89260603  0.79566755  0.94749472    -0.24200
C441        C  0.89868027  0.86291000  0.81931376    -0.11000
C442        C  0.89729901  0.88455893  0.82882168     0.11600
C443        C  0.88186989  0.88838061  0.84662944    -0.02800
C444        C  0.86966381  0.86984057  0.85543405    -0.05600
C445        C  0.87163477  0.84687100  0.84740526    -0.16300
C446        C  0.88722330  0.84376706  0.82841645     0.02600
C447        C  0.91486940  0.90150306  0.82188851     0.12500
C448        C  0.87799234  0.91148057  0.85773529     0.63200
H449        H  0.85996881  0.87396489  0.87035325     0.12600
C450        C  0.89449428  0.82094897  0.81826284     0.55300
H451        H  0.91079476  0.86096645  0.80561678     0.08400
C452        C  0.93633717  0.90255970  0.83314202    -0.05500
C453        C  0.95221061  0.91904249  0.82624212    -0.06200
C454        C  0.94749911  0.93446344  0.80850270    -0.15800
C455        C  0.92631734  0.93280658  0.79658682    -0.01400
C456        C  0.91033749  0.91615466  0.80348613    -0.08900
C457        C  0.94234464  0.88654460  0.85264892     0.65400
H458        H  0.96851576  0.92027833  0.83503708     0.10800
C459        C  0.92026762  0.94890253  0.77726857     0.63800
H460        H  0.89396831  0.91466713  0.79486183     0.08200
F461        F  0.90700442  0.80891320  0.83407954    -0.19300
F462        F  0.90846989  0.82342227  0.79949244    -0.15500
F463        F  0.87611996  0.80855702  0.81062848    -0.19000
F464        F  0.89033136  0.92888127  0.84791694    -0.22400
F465        F  0.88395585  0.91034682  0.88059200    -0.23900
F466        F  0.85507340  0.91698288  0.85598350    -0.17900
F467        F  0.89828177  0.94530992  0.76912475    -0.20300
F468        F  0.93514746  0.94566538  0.75938677    -0.21500
F469        F  0.92175835  0.97117651  0.78478181    -0.18700
F470        F  0.96435394  0.89005439  0.86075656    -0.18800
F471        F  0.94077196  0.86419009  0.84541834    -0.22600
F472        F  0.92750302  0.88994570  0.87050845    -0.24200
C473        C  0.77897074  0.76431236  0.80574086    -0.11000
C474        C  0.79853010  0.77508439  0.79746275     0.11600
C475        C  0.80426781  0.77142357  0.77447937    -0.02800
C476        C  0.78803671  0.76122114  0.76003418    -0.05600
C477        C  0.76912864  0.74822420  0.76792394    -0.16300
C478        C  0.76514168  0.74927683  0.79257682     0.02600
C479        C  0.81240654  0.78935500  0.81382450     0.12500
C480        C  0.82740535  0.77675549  0.76425395     0.63200
H481        H  0.79169698  0.76155237  0.74198873     0.12600
C482        C  0.74804199  0.73564591  0.80712896     0.55300
H483        H  0.77511349  0.76741742  0.82345366     0.08400
C484        C  0.81944341  0.81193837  0.80946651    -0.05500
C485        C  0.83553889  0.82203087  0.82428546    -0.06200
C486        C  0.84214753  0.81252038  0.84573578    -0.15800
C487        C  0.82872300  0.79304193  0.85260827    -0.01400
C488        C  0.81723909  0.78041277  0.83548102    -0.08900
C489        C  0.81000555  0.82676504  0.79037662     0.65400
H490        H  0.84160431  0.83864300  0.81932977     0.10800
C491        C  0.82462595  0.78532264  0.87708725     0.63800
H492        H  0.81091692  0.76355587  0.83933617     0.08200
F493        F  0.74515479  0.74506414  0.82859002    -0.19300
F494        F  0.75607004  0.71394311  0.81085347    -0.15500
F495        F  0.72649920  0.73473049  0.79810105    -0.19000
F496        F  0.83583840  0.75727749  0.75404453    -0.22400
F497        F  0.84341851  0.78374919  0.78021941    -0.23900
F498        F  0.82501634  0.79339758  0.74777409    -0.17900
F499        F  0.80899498  0.76763759  0.87811449    -0.20300
F500        F  0.81553095  0.80272777  0.88987744    -0.21500
F501        F  0.84429424  0.77751657  0.88703531    -0.18700
F502        F  0.80177470  0.84678741  0.79965773    -0.18800
F503        F  0.79220380  0.81677018  0.77842340    -0.22600
F504        F  0.82730022  0.83208365  0.77539460    -0.24200
C505        C  0.87990958  0.17671786  0.88645633    -0.11000
C506        C  0.90208317  0.16950817  0.88177704     0.11600
C507        C  0.90596923  0.15660837  0.86193336    -0.02800
C508        C  0.88700790  0.14926410  0.84901965    -0.05600
C509        C  0.86409906  0.15145644  0.85686095    -0.16300
C510        C  0.86093804  0.16962238  0.87315954     0.02600
C511        C  0.92046477  0.17403222  0.89889300     0.12500
C512        C  0.92991261  0.14934854  0.85516507     0.63200
H513        H  0.89042508  0.14011221  0.83346333     0.12600
C514        C  0.83850149  0.18184099  0.87726723     0.55300
H515        H  0.87750527  0.18748348  0.90123413     0.08400
C516        C  0.93081666  0.19558363  0.90198360    -0.05500
C517        C  0.94793241  0.19801268  0.91893185    -0.06200
C518        C  0.95526110  0.17958170  0.93258270    -0.15800
C519        C  0.94477739  0.15784398  0.92906982    -0.01400
C520        C  0.92720774  0.15582630  0.91267980    -0.08900
C521        C  0.92406412  0.21578743  0.88724403     0.65400
H522        H  0.95587540  0.21446861  0.92145694     0.10800
C523        C  0.95180474  0.13654175  0.94211052     0.63800
H524        H  0.91858001  0.13969167  0.91013933     0.08200
F525        F  0.84069864  0.19901400  0.89335371    -0.19300
F526        F  0.82228288  0.16709487  0.88522753    -0.15500
F527        F  0.83117962  0.19204745  0.85734545    -0.19000
F528        F  0.93821815  0.13351728  0.87053933    -0.22400
F529        F  0.94435072  0.16796291  0.85500172    -0.23900
F530        F  0.93024303  0.13954159  0.83368403    -0.17900
F531        F  0.93896475  0.11771495  0.93580026    -0.20300
F532        F  0.94880109  0.13984827  0.96525231    -0.21500
F533        F  0.97441312  0.13146501  0.93768365    -0.18700
F534        F  0.93703279  0.23488524  0.89228002    -0.18800
F535        F  0.90140920  0.22125611  0.89066787    -0.22600
F536        F  0.92714100  0.21052994  0.86449401    -0.24200
C537        C  0.83907547  0.05556998  0.92243047    -0.11000
C538        C  0.81976495  0.06893156  0.91825148     0.11600
C539        C  0.79889824  0.06354695  0.92883544    -0.02800
C540        C  0.79822816  0.04486903  0.94377017    -0.05600
C541        C  0.81773811  0.03160957  0.94861265    -0.16300
C542        C  0.83880922  0.03733916  0.93788399     0.02600
C543        C  0.82211538  0.08793588  0.90187142     0.12500
C544        C  0.77747101  0.07745523  0.92434245     0.63200
H545        H  0.78229201  0.04065145  0.95195681     0.12600
C546        C  0.86117018  0.02487952  0.94253020     0.55300
H547        H  0.85462738  0.05994296  0.91357478     0.08400
C548        C  0.83400426  0.10797894  0.90738966    -0.05500
C549        C  0.83931681  0.12323924  0.88982919    -0.06200
C550        C  0.83233498  0.12020095  0.86663480    -0.15800
C551        C  0.81809924  0.10033177  0.86213630    -0.01400
C552        C  0.81441630  0.08447087  0.87968032    -0.08900
C553        C  0.84232390  0.11263386  0.93163301     0.65400
H554        H  0.85091418  0.13641830  0.89460046     0.10800
C555        C  0.80711154  0.09393110  0.83935739     0.63800
H556        H  0.80591297  0.06847208  0.87598836     0.08200
F557        F  0.86763260  0.02781057  0.96509817    -0.19300
F558        F  0.87883766  0.03296038  0.92923501    -0.15500
F559        F  0.85866522  0.00199647  0.93773096    -0.19000
F560        F  0.77070151  0.07497126  0.90183862    -0.22400
F561        F  0.78170109  0.10020086  0.92872928    -0.23900
F562        F  0.75954985  0.07063163  0.93797226    -0.17900
F563        F  0.82237938  0.08214780  0.82606655    -0.20300
F564        F  0.79900415  0.11263598  0.82805474    -0.21500
F565        F  0.78834142  0.07989536  0.84235984    -0.18700
F566        F  0.85087828  0.13448604  0.93409813    -0.18800
F567        F  0.85947889  0.09753245  0.93746898    -0.22600
F568        F  0.82447287  0.11020725  0.94670468    -0.24200
C569        C  0.92870070  0.07156027  0.80468897    -0.11000
C570        C  0.90765749  0.06327083  0.81227370     0.11600
C571        C  0.90401926  0.03951393  0.81354404    -0.02800
C572        C  0.92286420  0.02493222  0.81080537    -0.05600
C573        C  0.94440997  0.03331497  0.80467132    -0.16300
C574        C  0.94702715  0.05687884  0.80000189     0.02600
C575        C  0.89047272  0.07992728  0.82036905     0.12500
C576        C  0.88022099  0.02970548  0.81662209     0.63200
H577        H  0.92085641  0.00677314  0.81319290     0.12600
C578        C  0.96832497  0.06763557  0.79011378     0.55300
H579        H  0.93092549  0.08977832  0.80272722     0.08400
C580        C  0.88909818  0.08566247  0.84351901    -0.05500
C581        C  0.87312820  0.10200607  0.85005434    -0.06200
C582        C  0.85816004  0.11400005  0.83471493    -0.15800
C583        C  0.85918008  0.10677066  0.81100483    -0.01400
C584        C  0.87615868  0.09077984  0.80461759    -0.08900
C585        C  0.90551069  0.07567685  0.86126843     0.65400
H586        H  0.87356000  0.10692502  0.86776130     0.10800
C587        C  0.84329691  0.11265768  0.79107000     0.63800
H588        H  0.87786549  0.08594871  0.78684331     0.08200
F589        F  0.97661445  0.08402719  0.80499336    -0.19300
F590        F  0.96263179  0.07801464  0.76967863    -0.15500
F591        F  0.98556441  0.05223190  0.78590692    -0.19000
F592        F  0.86635275  0.03690455  0.79884158    -0.22400
F593        F  0.87082058  0.03686610  0.83691395    -0.23900
F594        F  0.88044058  0.00613955  0.81653343    -0.17900
F595        F  0.85491978  0.12612298  0.77579142    -0.20300
F596        F  0.82332600  0.12313626  0.79678551    -0.21500
F597        F  0.83694607  0.09283687  0.77983263    -0.18700
F598        F  0.90162581  0.08415995  0.88294051    -0.18800
F599        F  0.92775103  0.08090796  0.85554819    -0.22600
F600        F  0.90324616  0.05231632  0.86230753    -0.24200
C601        C  0.19591397  0.87571041  0.89000374    -0.11000
C602        C  0.18700417  0.89777262  0.88995886     0.11600
C603        C  0.17489823  0.90505669  0.87041512    -0.02800
C604        C  0.16788062  0.88855238  0.85430041    -0.05600
C605        C  0.17067631  0.86473142  0.85815691    -0.16300
C606        C  0.18980925  0.85959875  0.87299487     0.02600
C607        C  0.19186666  0.91315047  0.90977204     0.12500
C608        C  0.16948237  0.93005347  0.86660030     0.63200
H609        H  0.15895765  0.89445012  0.83927528     0.12600
C610        C  0.20501869  0.83870519  0.87087398     0.55300
H611        H  0.20774722  0.87119201  0.90356066     0.08400
C612        C  0.17634651  0.91563828  0.92799573    -0.05500
C613        C  0.18090938  0.93200809  0.94494216    -0.06200
C614        C  0.20136913  0.94454626  0.94563065    -0.15800
C615        C  0.21850303  0.93929931  0.92931307    -0.01400
C616        C  0.21296727  0.92442168  0.91105900    -0.08900
C617        C  0.15502648  0.90110555  0.92977302     0.65400
H618        H  0.16834130  0.93501301  0.95803721     0.10800
C619        C  0.24264793  0.94848620  0.93130241     0.63800
H620        H  0.22522309  0.92113456  0.89773659     0.08200
F621        F  0.22451890  0.84067658  0.88430041    -0.19300
F622        F  0.21225699  0.83632605  0.84874059    -0.15500
F623        F  0.19404330  0.81930088  0.87761621    -0.19000
F624        F  0.18961661  0.94227865  0.86544814    -0.22400
F625        F  0.15658681  0.93844317  0.88433862    -0.23900
F626        F  0.15734896  0.93352537  0.84651861    -0.17900
F627        F  0.25634949  0.94092719  0.91372425    -0.20300
F628        F  0.25236279  0.94126114  0.95161506    -0.21500
F629        F  0.24249364  0.97189512  0.93071929    -0.18700
F630        F  0.13945779  0.90766133  0.91336700    -0.18800
F631        F  0.14475030  0.90335575  0.95082825    -0.22600
F632        F  0.16042969  0.87838803  0.92685379    -0.24200
C633        C  0.08549983  0.92437406  0.79401065    -0.11000
C634        C  0.07983381  0.90232670  0.80136656     0.11600
C635        C  0.05657658  0.89692160  0.80553368    -0.02800
C636        C  0.04003338  0.91420773  0.80366063    -0.05600
C637        C  0.04598961  0.93648564  0.79776917    -0.16300
C638        C  0.06882280  0.94160947  0.79200926     0.02600
C639        C  0.09855360  0.88787225  0.81088900     0.12500
C640        C  0.04934278  0.87322744  0.81292157     0.63200
H641        H  0.02235999  0.91069229  0.80770509     0.12600
C642        C  0.07553632  0.96551223  0.78494337     0.55300
H643        H  0.10333947  0.92842276  0.79144448     0.08400
C644        C  0.11335830  0.87410393  0.79808350    -0.05500
C645        C  0.13044419  0.86132760  0.80966291    -0.06200
C646        C  0.13369902  0.86178672  0.83390200    -0.15800
C647        C  0.11832189  0.87680147  0.84615912    -0.01400
C648        C  0.10155364  0.88908951  0.83426069    -0.08900
C649        C  0.11101710  0.87292532  0.77231360     0.65400
H650        H  0.14055082  0.85017139  0.79934748     0.10800
C651        C  0.11776691  0.88253129  0.87147226     0.63800
H652        H  0.09019844  0.90030161  0.84360819     0.08200
F653        F  0.09858151  0.96710867  0.78013573    -0.19300
F654        F  0.07070546  0.98065369  0.80233196    -0.15500
F655        F  0.06337195  0.97169483  0.76559906    -0.19000
F656        F  0.05796243  0.86846560  0.83438864    -0.22400
F657        F  0.05735868  0.85726770  0.79763870    -0.23900
F658        F  0.02581099  0.87112106  0.81375199    -0.17900
F659        F  0.11966121  0.90588935  0.87396733    -0.20300
F660        F  0.13444317  0.87294840  0.88470075    -0.21500
F661        F  0.09689925  0.87600769  0.87998658    -0.18700
F662        F  0.12590517  0.85729785  0.76288985    -0.18800
F663        F  0.11565946  0.89403455  0.76308365    -0.22600
F664        F  0.08903756  0.86662991  0.76624789    -0.24200
C665        C  0.10357847  0.81321849  0.87648065    -0.11000
C666        C  0.11105330  0.81289434  0.89909519     0.11600
C667        C  0.13328974  0.82031747  0.90437611    -0.02800
C668        C  0.14634592  0.83036889  0.88709794    -0.05600
C669        C  0.13923239  0.83174367  0.86382415    -0.16300
C670        C  0.11738324  0.82114173  0.85855214     0.02600
C671        C  0.09488283  0.80530159  0.91699406     0.12500
C672        C  0.14303584  0.81822557  0.92843742     0.63200
H673        H  0.16181721  0.83804230  0.89268342     0.12600
C674        C  0.10677118  0.81788243  0.83486916     0.55300
H675        H  0.08650592  0.80694095  0.87280196     0.08400
C676        C  0.07920989  0.82056324  0.92689974    -0.05500
C677        C  0.06458250  0.81257990  0.94386513    -0.06200
C678        C  0.06475146  0.78979571  0.95131913    -0.15800
C679        C  0.08038151  0.77433703  0.94110125    -0.01400
C680        C  0.09509202  0.78246992  0.92393941    -0.08900
C681        C  0.07736501  0.84508555  0.91907088     0.65400
H682        H  0.05246027  0.82432692  0.95118303     0.10800
C683        C  0.08202741  0.74958606  0.94827914     0.63800
H684        H  0.10706883  0.77109075  0.91579594     0.08200
F685        F  0.09092479  0.83479334  0.83073765    -0.19300
F686        F  0.09548910  0.79715841  0.83368888    -0.15500
F687        F  0.12266127  0.81756252  0.81773545    -0.19000
F688        F  0.14218033  0.79577685  0.93537885    -0.22400
F689        F  0.13053568  0.83138852  0.94335003    -0.23900
F690        F  0.16561963  0.82517997  0.92974403    -0.17900
F691        F  0.09938089  0.73826043  0.93708558    -0.20300
F692        F  0.06176691  0.73849263  0.94321119    -0.21500
F693        F  0.08650395  0.74827528  0.97143920    -0.18700
F694        F  0.06223578  0.85754311  0.93211984    -0.18800
F695        F  0.06962891  0.84544568  0.89674460    -0.22600
F696        F  0.09843265  0.85562038  0.92060856    -0.24200
C697        C  0.92197309  0.86492210  0.15746833    -0.11000
C698        C  0.91030017  0.88453867  0.16388025     0.11600
C699        C  0.88633782  0.88393217  0.16481283    -0.02800
C700        C  0.87495896  0.86434074  0.15697937    -0.05600
C701        C  0.88619385  0.84544741  0.14650415    -0.16300
C702        C  0.91067597  0.84477217  0.15041588     0.02600
C703        C  0.92367542  0.90599458  0.16565110     0.12500
C704        C  0.87185304  0.90399880  0.17222952     0.63200
H705        H  0.85649705  0.86454248  0.15764079     0.12600
C706        C  0.92561475  0.82371429  0.14966362     0.55300
H707        H  0.94045944  0.86580448  0.15757439     0.08400
C708        C  0.93577645  0.91266961  0.18550713    -0.05500
C709        C  0.94923995  0.93260386  0.18480451    -0.06200
C710        C  0.95180715  0.94530903  0.16457072    -0.15800
C711        C  0.93981789  0.93800806  0.14448605    -0.01400
C712        C  0.92537447  0.91902733  0.14588967    -0.08900
C713        C  0.93438196  0.89871297  0.20718434     0.65400
H714        H  0.95848775  0.93793977  0.19996369     0.10800
C715        C  0.94242993  0.94922740  0.12122928     0.63800
H716        H  0.91574760  0.91361581  0.13111406     0.08200
F717        F  0.91614598  0.80679373  0.16280265    -0.19300
F718        F  0.94717835  0.82756180  0.15884614    -0.15500
F719        F  0.92883735  0.81689682  0.12751825    -0.19000
F720        F  0.86086715  0.91297358  0.15334820    -0.22400
F721        F  0.88440632  0.92110587  0.18261391    -0.23900
F722        F  0.85559865  0.89672733  0.18756365    -0.17900
F723        F  0.96454354  0.94639120  0.11362063    -0.20300
F724        F  0.93734950  0.97207981  0.12260893    -0.21500
F725        F  0.92796222  0.93988398  0.10489888    -0.18700
F726        F  0.94684297  0.90843508  0.22486093    -0.18800
F727        F  0.94289616  0.87712194  0.20332510    -0.22600
F728        F  0.91188696  0.89699688  0.21394910    -0.24200
C729        C  0.81233990  0.89204835  0.05707071    -0.11000
C730        C  0.82029395  0.89908274  0.07858479     0.11600
C731        C  0.82014943  0.92245427  0.08443723    -0.02800
C732        C  0.81305463  0.93828465  0.06793990    -0.05600
C733        C  0.80695982  0.93139388  0.04584471    -0.16300
C734        C  0.80590489  0.90797768  0.04035405     0.02600
C735        C  0.83175049  0.88193715  0.09315406     0.12500
C736        C  0.82892609  0.93069223  0.10741337     0.63200
H737        H  0.81399541  0.95633857  0.07157627     0.12600
C738        C  0.79933000  0.90007886  0.01656164     0.55300
H739        H  0.81269989  0.87405841  0.05301333     0.08400
C740        C  0.82031705  0.86792917  0.10878703    -0.05500
C741        C  0.83303484  0.85164732  0.12101114    -0.06200
C742        C  0.85654587  0.84717175  0.11699258    -0.15800
C743        C  0.86802074  0.86268393  0.10162170    -0.01400
C744        C  0.85517957  0.87945181  0.09029647    -0.08900
C745        C  0.79484766  0.86931727  0.11337314     0.65400
H746        H  0.82403930  0.84274041  0.13421451     0.10800
C747        C  0.89365350  0.86456384  0.09712237     0.63800
H748        H  0.86364889  0.89106800  0.07873616     0.08200
F749        F  0.79876584  0.87657543  0.01491245    -0.19300
F750        F  0.81501861  0.90812152  0.00104699    -0.15500
F751        F  0.77788427  0.90831437  0.01096926    -0.19000
F752        F  0.85210070  0.92649985  0.10916203    -0.22400
F753        F  0.81771929  0.91942468  0.12470372    -0.23900
F754        F  0.82546807  0.95382289  0.11032472    -0.17900
F755        F  0.90639113  0.84623793  0.10382777    -0.20300
F756        F  0.90192576  0.88350674  0.10830100    -0.21500
F757        F  0.89757800  0.86750227  0.07407033    -0.18700
F758        F  0.79144333  0.87296208  0.13639986    -0.18800
F759        F  0.78471474  0.84892120  0.10721686    -0.22600
F760        F  0.78395460  0.88655538  0.10154353    -0.24200
C761        C  0.95400498  0.78266079  0.08736283    -0.11000
C762        C  0.93325816  0.77176578  0.08248924     0.11600
C763        C  0.93199607  0.75614630  0.06400908    -0.02800
C764        C  0.95117876  0.75366095  0.04975944    -0.05600
C765        C  0.97118538  0.76636973  0.05353381    -0.16300
C766        C  0.97323049  0.77968999  0.07365239     0.02600
C767        C  0.91266650  0.78105375  0.09389543     0.12500
C768        C  0.91025105  0.74295990  0.05876817     0.63200
H769        H  0.94998698  0.74326841  0.03452085     0.12600
C770        C  0.99492580  0.79209123  0.08069481     0.55300
H771        H  0.95493435  0.79458473  0.10144462     0.08400
C772        C  0.90698693  0.77669969  0.11680854    -0.05500
C773        C  0.89057602  0.79080684  0.12737430    -0.06200
C774        C  0.88080380  0.81002340  0.11633681    -0.15800
C775        C  0.88186256  0.80912314  0.09154831    -0.01400
C776        C  0.89981005  0.79684831  0.08166129    -0.08900
C777        C  0.91987385  0.75906770  0.13072373     0.65400
H778        H  0.88655804  0.78770443  0.14499715     0.10800
C779        C  0.86446226  0.81697822  0.07350870     0.63800
H780        H  0.90321379  0.79886921  0.06360764     0.08200
F781        F  0.99836738  0.78997941  0.10398329    -0.19300
F782        F  0.99284147  0.81491743  0.07538764    -0.15500
F783        F  0.01400980  0.78336244  0.07014686    -0.19000
F784        F  0.89311189  0.75761759  0.05186869    -0.22400
F785        F  0.90323888  0.73143253  0.07797913    -0.23900
F786        F  0.91348268  0.72710901  0.04160194    -0.17900
F787        F  0.85881698  0.79857842  0.05975386    -0.20300
F788        F  0.87401042  0.83337695  0.05972246    -0.21500
F789        F  0.84420190  0.82496548  0.08163231    -0.18700
F790        F  0.91010463  0.75578853  0.15187283    -0.18800
F791        F  0.94218291  0.76612232  0.13407709    -0.22600
F792        F  0.91990450  0.73842626  0.11943745    -0.24200
C793        C  0.16746381  0.87736290  0.08560231    -0.11000
C794        C  0.18209662  0.89381521  0.09476625     0.11600
C795        C  0.18804704  0.89256779  0.11799142    -0.02800
C796        C  0.17813994  0.87544059  0.13137124    -0.05600
C797        C  0.16307472  0.85835248  0.12290446    -0.16300
C798        C  0.15872022  0.85890394  0.09841658     0.02600
C799        C  0.19024879  0.91237269  0.07939009     0.12500
C800        C  0.20405439  0.90981078  0.12906311     0.63200
H801        H  0.18188111  0.87576446  0.14924289     0.12600
C802        C  0.14669062  0.84049194  0.08427009     0.55300
H803        H  0.16321784  0.87918604  0.06769971     0.08400
C804        C  0.20600803  0.90835462  0.06156549    -0.05500
C805        C  0.21008695  0.92577836  0.04550839    -0.06200
C806        C  0.19950208  0.94713351  0.04726877    -0.15800
C807        C  0.18600429  0.95191961  0.06668552    -0.01400
C808        C  0.18086859  0.93416769  0.08190738    -0.08900
C809        C  0.21856798  0.88583672  0.05966256     0.65400
H810        H  0.22101217  0.92259866  0.03104681     0.10800
C811        C  0.17808579  0.97594020  0.07198580     0.63800
H812        H  0.16909588  0.93711237  0.09573109     0.08200
F813        F  0.14536978  0.84592554  0.06131220    -0.19300
F814        F  0.12455299  0.83717597  0.09102937    -0.15500
F815        F  0.15900810  0.82056105  0.08547420    -0.19000
F816        F  0.19302851  0.93047056  0.13123318    -0.22400
F817        F  0.22335532  0.91266999  0.11596465    -0.23900
F818        F  0.21111054  0.90291807  0.15057433    -0.17900
F819        F  0.16873695  0.97750970  0.09353713    -0.20300
F820        F  0.16173357  0.98284301  0.05634983    -0.21500
F821        F  0.19659207  0.99056632  0.07123376    -0.18700
F822        F  0.23504998  0.88645381  0.04290438    -0.18800
F823        F  0.20343895  0.86854007  0.05433286    -0.22600
F824        F  0.22932213  0.88090879  0.08016354    -0.24200
C825        C  0.11772857  0.89674565  0.17453724    -0.11000
C826        C  0.10087089  0.90172713  0.15826409     0.11600
C827        C  0.10097686  0.89014196  0.13731661    -0.02800
C828        C  0.11745199  0.87328675  0.13384816    -0.05600
C829        C  0.13386075  0.86629749  0.15048213    -0.16300
C830        C  0.13510479  0.88028956  0.17093215     0.02600
C831        C  0.08413798  0.92028489  0.16265768     0.12500
C832        C  0.08337004  0.89514531  0.11866986     0.63200
H833        H  0.11706334  0.86475187  0.11771934     0.12600
C834        C  0.15358069  0.88125183  0.18954994     0.55300
H835        H  0.11784558  0.90676613  0.19010048     0.08400
C836        C  0.06390617  0.91669436  0.17522144    -0.05500
C837        C  0.04726016  0.93398666  0.17555220    -0.06200
C838        C  0.05017067  0.95442089  0.16356746    -0.15800
C839        C  0.07097606  0.95850479  0.15208945    -0.01400
C840        C  0.08777953  0.94137726  0.15212758    -0.08900
C841        C  0.05979195  0.89461285  0.18790901     0.65400
H842        H  0.03145407  0.93142068  0.18465719     0.10800
C843        C  0.07545931  0.98078411  0.13987347     0.63800
H844        H  0.10357898  0.94388431  0.14299344     0.08200
F845        F  0.16062426  0.90361928  0.19222861    -0.19300
F846        F  0.17304823  0.86895298  0.18582599    -0.15500
F847        F  0.14423907  0.87414048  0.20988642    -0.19000
F848        F  0.08681740  0.91673689  0.11006950    -0.22400
F849        F  0.06154802  0.89374530  0.12738696    -0.23900
F850        F  0.08472115  0.87989522  0.10069880    -0.17900
F851        F  0.09773087  0.98222440  0.13225130    -0.20300
F852        F  0.07172631  0.99886192  0.15451441    -0.21500
F853        F  0.06105497  0.98259034  0.12116828    -0.18700
F854        F  0.03875111  0.89440768  0.19849676    -0.18800
F855        F  0.07649610  0.89173771  0.20445923    -0.22600
F856        F  0.06041518  0.87648960  0.17292619    -0.24200
C857        C  0.10313176  0.79052440  0.06680649    -0.11000
C858        C  0.09773706  0.78129632  0.08813833     0.11600
C859        C  0.07871322  0.76652065  0.09009331    -0.02800
C860        C  0.06463570  0.76299448  0.07080493    -0.05600
C861        C  0.06884129  0.77421281  0.05016611    -0.16300
C862        C  0.08887462  0.78739892  0.04772380     0.02600
C863        C  0.10961648  0.79148258  0.10814203     0.12500
C864        C  0.07201399  0.75603120  0.11268234     0.63200
H865        H  0.04923608  0.75288021  0.07227205     0.12600
C866        C  0.09481159  0.79872947  0.02527487     0.55300
H867        H  0.11776244  0.80170013  0.06560092     0.08400
C868        C  0.13308452  0.78851919  0.11250091    -0.05500
C869        C  0.14461088  0.80520006  0.12556471    -0.06200
C870        C  0.13349791  0.82473758  0.13447057    -0.15800
C871        C  0.10887209  0.82240658  0.13609732    -0.01400
C872        C  0.09775937  0.80767829  0.12068385    -0.08900
C873        C  0.14589258  0.76825060  0.10289493     0.65400
H874        H  0.16273198  0.80350759  0.12751714     0.10800
C875        C  0.09245469  0.83204986  0.15376628     0.63800
H876        H  0.07938180  0.80879822  0.11851369     0.08200
F877        F  0.11654652  0.80804389  0.02581863    -0.19300
F878        F  0.07949439  0.81602260  0.02059193    -0.15500
F879        F  0.09398123  0.78286338  0.00784219    -0.19000
F880        F  0.06003529  0.77171424  0.12544242    -0.22400
F881        F  0.09116542  0.74923631  0.12482161    -0.23900
F882        F  0.05830072  0.73708074  0.10936679    -0.17900
F883        F  0.07648793  0.84568116  0.14293592    -0.20300
F884        F  0.10226041  0.84404417  0.17135938    -0.21500
F885        F  0.08090628  0.81410912  0.16373383    -0.18700
F886        F  0.16833029  0.76765579  0.11052931    -0.18800
F887        F  0.14600131  0.76903820  0.07935378    -0.22600
F888        F  0.13536171  0.74836482  0.10971238    -0.24200
C889        C  0.92730579  0.21061434  0.05603161    -0.11000
C890        C  0.92215904  0.18908164  0.06515196     0.11600
C891        C  0.93383863  0.16969035  0.05655029    -0.02800
C892        C  0.95088574  0.17286399  0.04040022    -0.05600
C893        C  0.95625734  0.19421320  0.03110929    -0.16300
C894        C  0.94396109  0.21359043  0.03890347     0.02600
C895        C  0.90486213  0.18747240  0.08365919     0.12500
C896        C  0.92934947  0.14493445  0.06271753     0.63200
H897        H  0.95982639  0.15781176  0.03460244     0.12600
C898        C  0.94803372  0.23721912  0.02934762     0.55300
H899        H  0.91818439  0.22519467  0.06262680     0.08400
C900        C  0.90984177  0.17755905  0.10496376    -0.05500
C901        C  0.89166413  0.16831093  0.11729464    -0.06200
C902        C  0.86848413  0.16967041  0.10956333    -0.15800
C903        C  0.86454943  0.18883550  0.09480130    -0.01400
C904        C  0.88248904  0.19535693  0.08003476    -0.08900
C905        C  0.93379978  0.17535464  0.11474024     0.65400
H906        H  0.89613315  0.15958207  0.13292284     0.10800
C907        C  0.84449247  0.20513947  0.09700724     0.63800
H908        H  0.87909974  0.20644922  0.06567598     0.08200
F909        F  0.93412847  0.25336191  0.03939062    -0.19300
F910        F  0.94339812  0.23727828  0.00617272    -0.15500
F911        F  0.97046231  0.24364363  0.03324024    -0.19000
F912        F  0.91157959  0.14177645  0.07742631    -0.22400
F913        F  0.94882679  0.13574932  0.07255392    -0.23900
F914        F  0.92429278  0.13283139  0.04303414    -0.17900
F915        F  0.84469869  0.21455608  0.11858657    -0.20300
F916        F  0.82392903  0.19466540  0.09326368    -0.21500
F917        F  0.84594117  0.22290639  0.08159428    -0.18700
F918        F  0.93420222  0.18395543  0.13671569    -0.18800
F919        F  0.94981689  0.18716505  0.10224617    -0.22600
F920        F  0.93995339  0.15269521  0.11543100    -0.24200
C921        C  0.88096850  0.11104975  0.16475933    -0.11000
C922        C  0.89559629  0.09965100  0.14990491     0.11600
C923        C  0.89366754  0.10367265  0.12634344    -0.02800
C924        C  0.87848840  0.12045754  0.11874963    -0.05600
C925        C  0.86379395  0.13323500  0.13329425    -0.16300
C926        C  0.86377021  0.12631298  0.15703465     0.02600
C927        C  0.91176250  0.08221606  0.15896922     0.12500
C928        C  0.90781482  0.09041960  0.10913764     0.63200
H929        H  0.87842716  0.12431928  0.10078078     0.12600
C930        C  0.84629478  0.13202838  0.17536297     0.55300
H931        H  0.88224284  0.10684069  0.18272718     0.08400
C932        C  0.93436088  0.08775152  0.16578431    -0.05500
C933        C  0.95039299  0.07002732  0.16849290    -0.06200
C934        C  0.94417350  0.04719034  0.16511038    -0.15800
C935        C  0.92097532  0.04163194  0.16106635    -0.01400
C936        C  0.90505893  0.05932642  0.15805902    -0.08900
C937        C  0.94132890  0.11223343  0.17011897     0.65400
H938        H  0.96806380  0.07390221  0.17254664     0.10800
C939        C  0.91332416  0.01718854  0.15841659     0.63800
H940        H  0.88754851  0.05542600  0.15334188     0.08200
F941        F  0.84184229  0.11283566  0.18829118    -0.19300
F942        F  0.82541787  0.13891670  0.16710962    -0.15500
F943        F  0.85521666  0.14844170  0.18981506    -0.19000
F944        F  0.90265698  0.06750854  0.11040165    -0.22400
F945        F  0.93083101  0.09349858  0.11363842    -0.23900
F946        F  0.90354519  0.09724952  0.08693073    -0.17900
F947        F  0.88977709  0.01520888  0.15914428    -0.20300
F948        F  0.92245671  0.00394419  0.17572455    -0.21500
F949        F  0.92065249  0.00916303  0.13763817    -0.18700
F950        F  0.96418263  0.11406678  0.17612655    -0.18800
F951        F  0.92847388  0.12100661  0.18772981    -0.22600
F952        F  0.93760616  0.12511813  0.15080293    -0.24200
C953        C  0.83224376  0.11171228  0.06919515    -0.11000
C954        C  0.82038551  0.09532863  0.08141206     0.11600
C955        C  0.81424247  0.10000238  0.10404441    -0.02800
C956        C  0.82180768  0.12041917  0.11404484    -0.05600
C957        C  0.83578585  0.13676482  0.10284674    -0.16300
C958        C  0.83909151  0.13280634  0.07862373     0.02600
C959        C  0.81620313  0.07319014  0.06982574     0.12500
C960        C  0.80066043  0.08383804  0.11889008     0.63200
H961        H  0.81809984  0.12274194  0.13182200     0.12600
C962        C  0.84902744  0.14940981  0.06153371     0.55300
H963        H  0.83649035  0.10733627  0.05179316     0.08400
C964        C  0.79860081  0.07040587  0.05340374    -0.05500
C965        C  0.79742893  0.04992007  0.04099951    -0.06200
C966        C  0.81364253  0.03248942  0.04405626    -0.15800
C967        C  0.83080811  0.03502199  0.06121644    -0.01400
C968        C  0.83168924  0.05543037  0.07385608    -0.08900
C969        C  0.78148576  0.08926663  0.04871353     0.65400
H970        H  0.78440039  0.04786890  0.02792837     0.10800
C971        C  0.84825411  0.01652261  0.06623841     0.63800
H972        H  0.84508297  0.05809870  0.08645762     0.08200
F973        F  0.84690340  0.14187095  0.03919658    -0.19300
F974        F  0.87191105  0.15223094  0.06552502    -0.15500
F975        F  0.83750468  0.16973112  0.06225650    -0.19000
F976        F  0.81401876  0.07728354  0.13731693    -0.22400
F977        F  0.79342232  0.06446515  0.10754946    -0.23900
F978        F  0.78151948  0.09496400  0.12688206    -0.17900
F979        F  0.86029451  0.02080943  0.08622576    -0.20300
F980        F  0.86380943  0.01525952  0.04868321    -0.21500
F981        F  0.83738509  0.99576530  0.06861831    -0.18700
F982        F  0.76461608  0.08246657  0.03346632    -0.18800
F983        F  0.79249102  0.10790307  0.03954787    -0.22600
F984        F  0.77108612  0.09564498  0.06881282    -0.24200
C985        C  0.16404048  0.09087825  0.89049848    -0.11000
C986        C  0.18752462  0.09272222  0.89334306     0.11600
C987        C  0.19995358  0.10645523  0.87812155    -0.02800
C988        C  0.18814910  0.11751361  0.86007210    -0.05600
C989        C  0.16429728  0.11492543  0.85605682    -0.16300
C990        C  0.15191262  0.10173037  0.87287924     0.02600
C991        C  0.19784513  0.07907700  0.91230845     0.12500
C992        C  0.22553565  0.10957251  0.88109182     0.63200
H993        H  0.19784729  0.12841570  0.84911067     0.12600
C994        C  0.12607541  0.09831429  0.87500473     0.55300
H995        H  0.15485487  0.08039967  0.90258322     0.08400
C996        C  0.19319810  0.08407091  0.93550925    -0.05500
C997        C  0.19734130  0.06721933  0.95217266    -0.06200
C998        C  0.20643443  0.04587587  0.94644881    -0.15800
C999        C  0.21281781  0.04166377  0.92359516    -0.01400
C1000       C  0.20815430  0.05824499  0.90681717    -0.08900
C1001       C  0.18293218  0.10673852  0.94253289     0.65400
H1002       H  0.19257027  0.07025402  0.96972440     0.10800
C1003       C  0.22344723  0.01923524  0.91689612     0.63800
H1004       H  0.21120203  0.05446849  0.88902360     0.08200
F1005       F  0.11877708  0.11039755  0.89383153    -0.19300
F1006       F  0.12116951  0.07555614  0.87863722    -0.15500
F1007       F  0.11320742  0.10472532  0.85650923    -0.19000
F1008       F  0.23650201  0.08904131  0.87774042    -0.22400
F1009       F  0.23039568  0.11735008  0.90286379    -0.23900
F1010       F  0.23424562  0.12512898  0.86574006    -0.17900
F1011       F  0.22826519  0.01824103  0.89385187    -0.20300
F1012       F  0.20860432  0.00166265  0.92195323    -0.21500
F1013       F  0.24369877  0.01647253  0.92888033    -0.18700
F1014       F  0.18427552  0.10993798  0.96589829    -0.18800
F1015       F  0.16019324  0.10770529  0.93609039    -0.22600
F1016       F  0.19456402  0.12439736  0.93227796    -0.24200
C1017       C  0.12347458  0.16294018  0.88355459    -0.11000
C1018       C  0.10044849  0.16276954  0.87708403     0.11600
C1019       C  0.09502944  0.15768034  0.85411470    -0.02800
C1020       C  0.11184511  0.14740781  0.84052105    -0.05600
C1021       C  0.13483605  0.14393190  0.84805021    -0.16300
C1022       C  0.14085547  0.15642932  0.86847145     0.02600
C1023       C  0.08314960  0.16887439  0.89463171     0.12500
C1024       C  0.07187831  0.16223852  0.84309398     0.63200
H1025       H  0.10602361  0.14256933  0.82393176     0.12600
C1026       C  0.16455973  0.16478360  0.87524246     0.55300
H1027       H  0.12809298  0.16927548  0.90037167     0.08400
C1028       C  0.06574630  0.15367621  0.90187545    -0.05500
C1029       C  0.05068220  0.16088063  0.91881181    -0.06200
C1030       C  0.05284996  0.18197915  0.92987728    -0.15800
C1031       C  0.07041265  0.19706147  0.92311771    -0.01400
C1032       C  0.08505248  0.19032626  0.90531564    -0.08900
C1033       C  0.06208031  0.12949652  0.89331979     0.65400
H1034       H  0.03718212  0.14935153  0.92391991     0.10800
C1035       C  0.07431215  0.21965295  0.93511772     0.63800
H1036       H  0.09843550  0.20171059  0.89974407     0.08200
F1037       F  0.17262559  0.15240980  0.89365142    -0.19300
F1038       F  0.16325474  0.18744333  0.88165771    -0.15500
F1039       F  0.18005098  0.16387397  0.85782690    -0.19000
F1040       F  0.05695206  0.17352972  0.85728205    -0.22400
F1041       F  0.06201102  0.14186189  0.83642348    -0.23900
F1042       F  0.07492647  0.17559942  0.82395809    -0.17900
F1043       F  0.09387648  0.23042103  0.92758689    -0.20300
F1044       F  0.07668779  0.21616164  0.95835286    -0.21500
F1045       F  0.05600417  0.23396133  0.93100806    -0.18700
F1046       F  0.04072405  0.12789109  0.88315074    -0.18800
F1047       F  0.06297699  0.11469040  0.91163191    -0.22600
F1048       F  0.07799010  0.12235541  0.87784078    -0.24200
C1049       C  0.11970308  0.07183688  0.81583664    -0.11000
C1050       C  0.10273111  0.08188198  0.80255866     0.11600
C1051       C  0.10622037  0.10411167  0.79426832    -0.02800
C1052       C  0.12594501  0.11619645  0.80150323    -0.05600
C1053       C  0.13982103  0.10839548  0.81979643    -0.16300
C1054       C  0.13917082  0.08385669  0.82324966     0.02600
C1055       C  0.08163428  0.06828866  0.79830346     0.12500
C1056       C  0.08848763  0.11534705  0.77904677     0.63200
H1057       H  0.12853035  0.13332493  0.79533079     0.12600
C1058       C  0.15794687  0.06783013  0.83183514     0.55300
H1059       H  0.11783183  0.05398175  0.82019173     0.08400
C1060       C  0.08022401  0.05084049  0.78158766    -0.05500
C1061       C  0.06158365  0.03564334  0.78199172    -0.06200
C1062       C  0.04498622  0.03651922  0.79913301    -0.15800
C1063       C  0.04651183  0.05400321  0.81596658    -0.01400
C1064       C  0.06456520  0.06982782  0.81483941    -0.08900
C1065       C  0.09836620  0.04662655  0.76374784     0.65400
H1066       H  0.06068236  0.02212751  0.76939798     0.10800
C1067       C  0.02990692  0.05566996  0.83571187     0.63800
H1068       H  0.06644205  0.08274904  0.82793745     0.08200
F1069       F  0.16219140  0.05180747  0.81504798    -0.19300
F1070       F  0.15072571  0.05632533  0.85099600    -0.15500
F1071       F  0.17842932  0.07789587  0.83671380    -0.19000
F1072       F  0.06790750  0.11659187  0.79037862    -0.22400
F1073       F  0.08551394  0.10271297  0.75933477    -0.23900
F1074       F  0.09481700  0.13720789  0.77301002    -0.17900
F1075       F  0.03368740  0.03793486  0.85074691    -0.20300
F1076       F  0.00765395  0.05477122  0.82773921    -0.21500
F1077       F  0.03251451  0.07581999  0.84774511    -0.18700
F1078       F  0.08819013  0.04583205  0.74238017    -0.18800
F1079       F  0.10873305  0.02591340  0.76806683    -0.22600
F1080       F  0.11508539  0.06322248  0.76334401    -0.24200
C1081       C  0.18148108  0.11512887  0.08167392    -0.11000
C1082       C  0.19163147  0.09773172  0.09422422     0.11600
C1083       C  0.19611991  0.10135146  0.11765137    -0.02800
C1084       C  0.18626162  0.12057318  0.12833841    -0.05600
C1085       C  0.17050222  0.13479929  0.11665031    -0.16300
C1086       C  0.17321583  0.13493567  0.09214409     0.02600
C1087       C  0.19764782  0.07662961  0.08159270     0.12500
C1088       C  0.21008502  0.08440114  0.13131174     0.63200
H1089       H  0.18854404  0.12276193  0.14642781     0.12600
C1090       C  0.17063865  0.15478709  0.07561106     0.55300
H1091       H  0.18079485  0.11357175  0.06322772     0.08400
C1092       C  0.18181848  0.05853312  0.07875832    -0.05500
C1093       C  0.18567200  0.04228149  0.06173980    -0.06200
C1094       C  0.20464687  0.04322533  0.04732282    -0.15800
C1095       C  0.22116162  0.06064884  0.05083514    -0.01400
C1096       C  0.21727775  0.07709926  0.06798686    -0.08900
C1097       C  0.16007289  0.05572791  0.09233336     0.65400
H1098       H  0.17314539  0.02887165  0.05931138     0.10800
C1099       C  0.24204849  0.06275617  0.03585348     0.63800
H1100       H  0.22896117  0.09125429  0.07015568     0.08200
F1101       F  0.15290098  0.15046764  0.06052297    -0.19300
F1102       F  0.19051874  0.15675688  0.06313499    -0.15500
F1103       F  0.16741592  0.17556393  0.08566426    -0.19000
F1104       F  0.23146498  0.08217270  0.12175037    -0.22400
F1105       F  0.19935966  0.06343206  0.13115978    -0.23900
F1106       F  0.21287085  0.09123947  0.15377152    -0.17900
F1107       F  0.23540150  0.06395262  0.01318254    -0.20300
F1108       F  0.25609214  0.04411206  0.03908909    -0.21500
F1109       F  0.25464749  0.08209704  0.04091628    -0.18700
F1110       F  0.16009729  0.03455626  0.10262673    -0.18800
F1111       F  0.14139676  0.05714743  0.07778437    -0.22600
F1112       F  0.15765325  0.07183905  0.10914105    -0.24200
C1113       C  0.07095233  0.07552916  0.13950644    -0.11000
C1114       C  0.07975237  0.08443539  0.15980153     0.11600
C1115       C  0.07003653  0.07827506  0.18084748    -0.02800
C1116       C  0.05231710  0.06204985  0.18081590    -0.05600
C1117       C  0.04384393  0.05226407  0.16042838    -0.16300
C1118       C  0.05306410  0.05968134  0.13916629     0.02600
C1119       C  0.09929946  0.10019989  0.15776170     0.12500
C1120       C  0.07851495  0.08862771  0.20312360     0.63200
H1121       H  0.04507547  0.05679312  0.19688038     0.12600
C1122       C  0.04459886  0.05130453  0.11596243     0.55300
H1123       H  0.07862591  0.08106045  0.12373510     0.08400
C1124       C  0.12137736  0.09218635  0.15319023    -0.05500
C1125       C  0.13793357  0.10777449  0.14594334    -0.06200
C1126       C  0.13398600  0.13160211  0.14406214    -0.15800
C1127       C  0.11203577  0.13946171  0.15218215    -0.01400
C1128       C  0.09494979  0.12346233  0.15722664    -0.08900
C1129       C  0.12696896  0.06688943  0.15371389     0.65400
H1130       H  0.15369706  0.10048416  0.14085332     0.10800
C1131       C  0.10514334  0.16404935  0.15681872     0.63800
H1132       H  0.07779877  0.12925296  0.16099165     0.08200
F1133       F  0.05606978  0.06146327  0.09810212    -0.19300
F1134       F  0.02167418  0.05643320  0.11327788    -0.15500
F1135       F  0.04794985  0.02810204  0.11404489    -0.19000
F1136       F  0.07553670  0.11195271  0.20267012    -0.22400
F1137       F  0.10145052  0.08389465  0.20625289    -0.23900
F1138       F  0.06679617  0.08018547  0.22168541    -0.17900
F1139       F  0.09351465  0.16526617  0.17726051    -0.20300
F1140       F  0.09069629  0.17156013  0.13964096    -0.21500
F1141       F  0.12334383  0.17866862  0.15899314    -0.18700
F1142       F  0.15031101  0.06315331  0.15457241    -0.18800
F1143       F  0.11818536  0.05650753  0.13435673    -0.22600
F1144       F  0.11767347  0.05669975  0.17271519    -0.24200
C1145       C  0.06677022  0.19975039  0.07118964    -0.11000
C1146       C  0.08957410  0.19528424  0.06538843     0.11600
C1147       C  0.09572832  0.19491848  0.04201506    -0.02800
C1148       C  0.07850974  0.19685565  0.02526444    -0.05600
C1149       C  0.05559750  0.19985682  0.03109612    -0.16300
C1150       C  0.04958318  0.20204017  0.05431166     0.02600
C1151       C  0.10462268  0.18488672  0.08317369     0.12500
C1152       C  0.11983237  0.19046887  0.03394708     0.63200
H1153       H  0.08286946  0.19499772  0.00741869     0.12600
C1154       C  0.02486013  0.20533005  0.06108071     0.55300
H1155       H  0.06224481  0.19962748  0.08905815     0.08400
C1156       C  0.11889737  0.19697210  0.09848431    -0.05500
C1157       C  0.13308377  0.18464727  0.11370697    -0.06200
C1158       C  0.13489159  0.16043077  0.11348228    -0.15800
C1159       C  0.11988040  0.14864624  0.09744182    -0.01400
C1160       C  0.10473982  0.16127224  0.08373745    -0.08900
C1161       C  0.12045889  0.22273071  0.09913164     0.65400
H1162       H  0.14301554  0.19462339  0.12559070     0.10800
C1163       C  0.11762392  0.12304177  0.09309576     0.63800
H1164       H  0.09310451  0.15239997  0.07223791     0.08200
F1165       F  0.02263799  0.20822464  0.08438597    -0.19300
F1166       F  0.01217158  0.18650143  0.05458421    -0.15500
F1167       F  0.01609034  0.22441746  0.05038185    -0.19000
F1168       F  0.12139467  0.16823638  0.02635193    -0.22400
F1169       F  0.13596455  0.19408072  0.05090546    -0.23900
F1170       F  0.12492899  0.20494123  0.01611025    -0.17900
F1171       F  0.09729813  0.11549710  0.10220338    -0.20300
F1172       F  0.13493954  0.10997674  0.10158046    -0.21500
F1173       F  0.11708871  0.11884289  0.06983184    -0.18700
F1174       F  0.14236475  0.22922239  0.09334323    -0.18800
F1175       F  0.11598447  0.23033361  0.12097246    -0.22600
F1176       F  0.10532822  0.23327888  0.08434467    -0.24200
C1177       C  0.20649183  0.78563050  0.76607180    -0.11000
C1178       C  0.21665905  0.80037622  0.78185081     0.11600
C1179       C  0.24071801  0.80059728  0.78345821    -0.02800
C1180       C  0.25341631  0.78586767  0.76939249    -0.05600
C1181       C  0.24371439  0.76921751  0.75440994    -0.16300
C1182       C  0.21896402  0.77118230  0.75131378     0.02600
C1183       C  0.20105578  0.81248718  0.79811600     0.12500
C1184       C  0.25421259  0.81466805  0.80068919     0.63200
H1185       H  0.27162799  0.78628874  0.77197029     0.12600
C1186       C  0.20331927  0.76016311  0.73331726     0.55300
H1187       H  0.18796013  0.78564504  0.76519013     0.08400
C1188       C  0.19469146  0.83550206  0.79605654    -0.05500
C1189       C  0.18007484  0.84501833  0.81255541    -0.06200
C1190       C  0.16833302  0.83203988  0.82934609    -0.15800
C1191       C  0.17375474  0.80765934  0.82993185    -0.01400
C1192       C  0.19066682  0.79932145  0.81482131    -0.08900
C1193       C  0.20275085  0.84983408  0.77614520     0.65400
H1194       H  0.17713325  0.86318249  0.81199174     0.10800
C1195       C  0.16273512  0.78883538  0.84462304     0.63800
H1196       H  0.19568966  0.78161099  0.81504871     0.08200
F1197       F  0.18757462  0.77599935  0.72545695    -0.19300
F1198       F  0.19127047  0.74249793  0.74307706    -0.15500
F1199       F  0.21405784  0.75255972  0.71418907    -0.19000
F1200       F  0.24088088  0.82908166  0.81349788    -0.22400
F1201       F  0.27017387  0.82771712  0.78936524    -0.23900
F1202       F  0.26555312  0.80018791  0.81549701    -0.17900
F1203       F  0.17354082  0.76800978  0.84220860    -0.20300
F1204       F  0.14052608  0.78505284  0.83803850    -0.21500
F1205       F  0.16365306  0.79329999  0.86752658    -0.18700
F1206       F  0.19269119  0.87116104  0.77601854    -0.18800
F1207       F  0.19703880  0.83912967  0.75585121    -0.22600
F1208       F  0.22614322  0.85271624  0.77719521    -0.24200
C1209       C  0.82007519  0.79317567  0.16215265    -0.11000
C1210       C  0.82637113  0.79524171  0.18501502     0.11600
C1211       C  0.84738465  0.80533542  0.19064547    -0.02800
C1212       C  0.86001891  0.81572676  0.17323829    -0.05600
C1213       C  0.85336197  0.81567218  0.14966598    -0.16300
C1214       C  0.83371583  0.80138659  0.14414190     0.02600
C1215       C  0.81180000  0.78380733  0.20222739     0.12500
C1216       C  0.85707104  0.80396401  0.21480070     0.63200
H1217       H  0.87612143  0.82289292  0.17847241     0.12600
C1218       C  0.82618374  0.79342641  0.12031219     0.55300
H1219       H  0.80428197  0.78417363  0.15859861     0.08400
C1220       C  0.79373746  0.79495974  0.21329096    -0.05500
C1221       C  0.78013296  0.78249385  0.22853709    -0.06200
C1222       C  0.78171258  0.75846293  0.23095894    -0.15800
C1223       C  0.80091671  0.74746582  0.21986489    -0.01400
C1224       C  0.81541887  0.76070075  0.20609003    -0.08900
C1225       C  0.78804579  0.81964939  0.20799194     0.65400
H1226       H  0.76746077  0.79178037  0.23789018     0.10800
C1227       C  0.80800451  0.72245495  0.22252923     0.63800
H1228       H  0.82988080  0.75297404  0.19768710     0.08200
F1229       F  0.84411234  0.78452228  0.10828406    -0.19300
F1230       F  0.81590832  0.81074507  0.10834048    -0.15500
F1231       F  0.81019213  0.77606227  0.12132711    -0.19000
F1232       F  0.86103490  0.78144193  0.22033529    -0.22400
F1233       F  0.84189569  0.81302434  0.23023940    -0.23900
F1234       F  0.87749933  0.81566424  0.21711708    -0.17900
F1235       F  0.82181318  0.71540115  0.20480337    -0.20300
F1236       F  0.78965559  0.70783195  0.22250721    -0.21500
F1237       F  0.82049475  0.71977218  0.24238807    -0.18700
F1238       F  0.76920939  0.82716822  0.21994761    -0.18800
F1239       F  0.78322060  0.82188191  0.18497403    -0.22600
F1240       F  0.80628183  0.83356806  0.21354337    -0.24200
C1241       C  0.80522783  0.22291482  0.78533366    -0.11000
C1242       C  0.79533392  0.20145671  0.78823584     0.11600
C1243       C  0.77242551  0.19860155  0.78083060    -0.02800
C1244       C  0.76062533  0.21738161  0.77175949    -0.05600
C1245       C  0.77180851  0.23716988  0.76361239    -0.16300
C1246       C  0.79487808  0.24059776  0.77240056     0.02600
C1247       C  0.80781048  0.18397804  0.80252338     0.12500
C1248       C  0.75975521  0.17600485  0.78139529     0.63200
H1249       H  0.74272980  0.21516580  0.76812674     0.12600
C1250       C  0.80938685  0.26219802  0.77045087     0.55300
H1251       H  0.82132924  0.22588175  0.79389571     0.08400
C1252       C  0.83025019  0.17624719  0.79823790    -0.05500
C1253       C  0.84054514  0.16086747  0.81373910    -0.06200
C1254       C  0.82888675  0.15034128  0.83220627    -0.15800
C1255       C  0.80556482  0.15843629  0.83610852    -0.01400
C1256       C  0.79655358  0.17538363  0.82148732    -0.08900
C1257       C  0.84309745  0.18310834  0.77682173     0.65400
H1258       H  0.85811141  0.15612246  0.81083588     0.10800
C1259       C  0.78772709  0.15257857  0.85439697     0.63800
H1260       H  0.77979403  0.18235414  0.82495822     0.08200
F1261       F  0.82145206  0.26196523  0.75035862    -0.19300
F1262       F  0.82529702  0.26381335  0.78802687    -0.15500
F1263       F  0.79659828  0.28162257  0.77194206    -0.19000
F1264       F  0.74525826  0.17561401  0.79986719    -0.22400
F1265       F  0.77446102  0.15763053  0.78256745    -0.23900
F1266       F  0.74678742  0.17339644  0.76169489    -0.17900
F1267       F  0.78142085  0.17237776  0.86557080    -0.20300
F1268       F  0.79364860  0.13746550  0.87101258    -0.21500
F1269       F  0.76842378  0.14395216  0.84362042    -0.18700
F1270       F  0.86224918  0.16980288  0.77347452    -0.18800
F1271       F  0.85050918  0.20534833  0.77829691    -0.22600
F1272       F  0.82902585  0.18063130  0.75788959    -0.24200
C1273       C  0.20830637  0.19191459  0.75662844    -0.11000
C1274       C  0.21002094  0.19102217  0.78031042     0.11600
C1275       C  0.22638599  0.20483807  0.79126354    -0.02800
C1276       C  0.23905524  0.22058652  0.77822632    -0.05600
C1277       C  0.23632360  0.22374129  0.75404936    -0.16300
C1278       C  0.22110748  0.20724807  0.74318852     0.02600
C1279       C  0.19500308  0.17471827  0.79304780     0.12500
C1280       C  0.23092491  0.20233405  0.81674553     0.63200
H1281       H  0.25177748  0.22990041  0.78764580     0.12600
C1282       C  0.21697471  0.20365624  0.71777386     0.55300
H1283       H  0.19654751  0.18014621  0.74837562     0.08400
C1284       C  0.17307960  0.18075980  0.80049983    -0.05500
C1285       C  0.16046693  0.16500448  0.81346663    -0.06200
C1286       C  0.16795541  0.14233339  0.81860302    -0.15800
C1287       C  0.18822054  0.13535240  0.80626667    -0.01400
C1288       C  0.20203356  0.15219580  0.79578867    -0.08900
C1289       C  0.16270728  0.20362710  0.79403246     0.65400
H1290       H  0.14401690  0.17076800  0.81896153     0.10800
C1291       C  0.19559415  0.11089792  0.80162741     0.63800
H1292       H  0.21838907  0.14763603  0.78859599     0.08200
F1293       F  0.19379684  0.20491266  0.71313284    -0.19300
F1294       F  0.22451017  0.18216450  0.71179394    -0.15500
F1295       F  0.22755674  0.21901147  0.70403068    -0.19000
F1296       F  0.23800386  0.18036238  0.82138319    -0.22400
F1297       F  0.21123549  0.20673547  0.82879606    -0.23900
F1298       F  0.24772242  0.21708842  0.82454710    -0.17900
F1299       F  0.20981303  0.10964050  0.78289829    -0.20300
F1300       F  0.17716663  0.09737443  0.79624941    -0.21500
F1301       F  0.20777548  0.10217222  0.81980168    -0.18700
F1302       F  0.14104156  0.20648291  0.80285423    -0.18800
F1303       F  0.16100382  0.20516075  0.77054631    -0.22600
F1304       F  0.17629142  0.22118922  0.80205307    -0.24200
C1305       C  0.21716303  0.80486403  0.22563083    -0.11000
C1306       C  0.20029755  0.79340730  0.21325681     0.11600
C1307       C  0.19836536  0.76963678  0.21570517    -0.02800
C1308       C  0.21434976  0.75809266  0.22974425    -0.05600
C1309       C  0.23326667  0.76897124  0.24076791    -0.16300
C1310       C  0.23250192  0.79384891  0.24075343     0.02600
C1311       C  0.18693412  0.80677732  0.19599649     0.12500
C1312       C  0.18078191  0.75625785  0.20191727     0.63200
H1313       H  0.21317944  0.73978220  0.23054090     0.12600
C1314       C  0.24480838  0.81121440  0.25613892     0.55300
H1315       H  0.21788769  0.82323698  0.22379327     0.08400
C1316       C  0.16447132  0.81481667  0.19908670    -0.05500
C1317       C  0.15398578  0.82730179  0.18139172    -0.06200
C1318       C  0.16506246  0.83382708  0.16094253    -0.15800
C1319       C  0.18823384  0.82523708  0.15807548    -0.01400
C1320       C  0.19833603  0.81259382  0.17605439    -0.08900
C1321       C  0.15072533  0.81133611  0.22068319     0.65400
H1322       H  0.13674540  0.83265305  0.18413647     0.10800
C1323       C  0.20388838  0.82826277  0.13734644     0.63800
H1324       H  0.21586963  0.80686673  0.17478994     0.08200
F1325       F  0.22905284  0.82687870  0.26408557    -0.19300
F1326       F  0.26086100  0.82299084  0.24365438    -0.15500
F1327       F  0.25502375  0.80272552  0.27528186    -0.19000
F1328       F  0.18430597  0.75972236  0.17888750    -0.22400
F1329       F  0.15901414  0.76327813  0.20729549    -0.23900
F1330       F  0.18207671  0.73311981  0.20612126    -0.17900
F1331       F  0.22061261  0.81159004  0.13672200    -0.20300
F1332       F  0.21508309  0.84890082  0.13879146    -0.21500
F1333       F  0.19268635  0.82643918  0.11673431    -0.18700
F1334       F  0.13089636  0.79954754  0.21540072    -0.18800
F1335       F  0.14478699  0.83227405  0.22960264    -0.22600
F1336       F  0.16243601  0.79952214  0.23744032    -0.24200
C1337       C  0.78913165  0.19672997  0.20358148    -0.11000
C1338       C  0.79951982  0.20967066  0.18670968     0.11600
C1339       C  0.79472043  0.23313253  0.18572364    -0.02800
C1340       C  0.78050499  0.24272797  0.20239383    -0.05600
C1341       C  0.76837021  0.22996096  0.21917522    -0.16300
C1342       C  0.77218791  0.20535717  0.21840925     0.02600
C1343       C  0.81255439  0.19695471  0.16890513     0.12500
C1344       C  0.80370169  0.24905925  0.16749239     0.63200
H1345       H  0.77855920  0.26102770  0.20190535     0.12600
C1346       C  0.76012415  0.18597219  0.23107004     0.55300
H1347       H  0.79336712  0.17875078  0.20391110     0.08400
C1348       C  0.83629604  0.19353883  0.17002780    -0.05500
C1349       C  0.84674941  0.17982954  0.15331987    -0.06200
C1350       C  0.83448539  0.16833274  0.13562591    -0.15800
C1351       C  0.81000978  0.17299337  0.13419674    -0.01400
C1352       C  0.80002579  0.18648475  0.15148672    -0.08900
C1353       C  0.85036097  0.20363136  0.18943137     0.65400
H1354       H  0.86495940  0.17715563  0.15466390     0.10800
C1355       C  0.79226359  0.16461998  0.11653005     0.63800
H1356       H  0.78167226  0.18898447  0.15168098     0.08200
F1357       F  0.75755342  0.16729169  0.21676966    -0.19300
F1358       F  0.73852696  0.19058980  0.23804325    -0.15500
F1359       F  0.77323439  0.17915533  0.24952921    -0.19000
F1360       F  0.78546311  0.25980667  0.15688762    -0.22400
F1361       F  0.81619450  0.23813975  0.15089032    -0.23900
F1362       F  0.81747280  0.26539991  0.17762715    -0.17900
F1363       F  0.77563172  0.18108618  0.11310295    -0.20300
F1364       F  0.78149640  0.14543955  0.12479784    -0.21500
F1365       F  0.80053033  0.16023313  0.09513943    -0.18700
F1366       F  0.87316101  0.19756861  0.18813856    -0.18800
F1367       F  0.84209264  0.19597239  0.21006478    -0.22600
F1368       F  0.84899008  0.22709528  0.18885041    -0.24200
C1369       C  0.22705298  0.19394890  0.19979181    -0.11000
C1370       C  0.20805895  0.20606604  0.19210039     0.11600
C1371       C  0.20197542  0.22614559  0.20352028    -0.02800
C1372       C  0.21668362  0.23462032  0.22070023    -0.05600
C1373       C  0.23705304  0.22334610  0.22822619    -0.16300
C1374       C  0.23937499  0.20012414  0.21967656     0.02600
C1375       C  0.19218390  0.19394274  0.17617708     0.12500
C1376       C  0.17997688  0.23850757  0.19748259     0.63200
H1377       H  0.21236585  0.25091789  0.22801869     0.12600
C1378       C  0.25010039  0.17883519  0.23067837     0.55300
H1379       H  0.23006971  0.17742857  0.19203295     0.08400
C1380       C  0.19368033  0.19461292  0.15224349    -0.05500
C1381       C  0.18030939  0.17934985  0.13923900    -0.06200
C1382       C  0.16524513  0.16299760  0.14870414    -0.15800
C1383       C  0.16644084  0.16084155  0.17352015    -0.01400
C1384       C  0.17809903  0.17777819  0.18613613    -0.08900
C1385       C  0.20896036  0.21093142  0.13937489     0.65400
H1386       H  0.18206672  0.18020176  0.12108491     0.10800
C1387       C  0.15873426  0.14052671  0.18810176     0.63800
H1388       H  0.17782585  0.17763765  0.20461022     0.08200
F1389       F  0.26687979  0.17029239  0.21668191    -0.19300
F1390       F  0.23330828  0.16228438  0.23237501    -0.15500
F1391       F  0.25886515  0.18095010  0.25228199    -0.19000
F1392       F  0.16149584  0.22455722  0.20184308    -0.22400
F1393       F  0.17986875  0.24416726  0.17460761    -0.23900
F1394       F  0.17737542  0.25831039  0.21001821    -0.17900
F1395       F  0.16620814  0.12028531  0.17909440    -0.20300
F1396       F  0.13544077  0.14030626  0.19088458    -0.21500
F1397       F  0.16799028  0.14117922  0.20994357    -0.18700
F1398       F  0.19569018  0.22380288  0.12462163    -0.18800
F1399       F  0.22452037  0.19860001  0.12677026    -0.22600
F1400       F  0.22092901  0.22567444  0.15346280    -0.24200
C1401       C  0.19904499  0.37566440  0.39112537    -0.11000
C1402       C  0.18321960  0.38625951  0.40520415     0.11600
C1403       C  0.16017222  0.38000727  0.40378950    -0.02800
C1404       C  0.15385834  0.36277403  0.38852548    -0.05600
C1405       C  0.16943825  0.35058796  0.37429768    -0.16300
C1406       C  0.19320482  0.35814532  0.37546637     0.02600
C1407       C  0.19108200  0.40453179  0.42089383     0.12500
C1408       C  0.14219327  0.39132957  0.41862111     0.63200
H1409       H  0.13602737  0.35805241  0.38821201     0.12600
C1410       C  0.21434615  0.35054501  0.36226020     0.55300
H1411       H  0.21662182  0.38147100  0.39245255     0.08400
C1412       C  0.20055298  0.39975537  0.44269258    -0.05500
C1413       C  0.20525419  0.41805026  0.45754741    -0.06200
C1414       C  0.20070042  0.44056771  0.45111769    -0.15800
C1415       C  0.19235744  0.44538146  0.42896230    -0.01400
C1416       C  0.18785334  0.42715946  0.41404099    -0.08900
C1417       C  0.20509244  0.37548483  0.45037570     0.65400
H1418       H  0.21182753  0.41489856  0.47458062     0.10800
C1419       C  0.18824365  0.46969561  0.42129296     0.63800
H1420       H  0.18105011  0.43035261  0.39710413     0.08200
F1421       F  0.23035616  0.34196172  0.37748849    -0.19300
F1422       F  0.21114030  0.33464313  0.34566084    -0.15500
F1423       F  0.22383476  0.36933345  0.35170109    -0.19000
F1424       F  0.14006128  0.41398616  0.41271291    -0.22400
F1425       F  0.14839695  0.38987163  0.44136575    -0.23900
F1426       F  0.12096805  0.38118643  0.41616982    -0.17900
F1427       F  0.17219886  0.47987187  0.43511416    -0.20300
F1428       F  0.18029335  0.47071411  0.39901206    -0.21500
F1429       F  0.20846220  0.48183228  0.42270886    -0.18700
F1430       F  0.21464636  0.37473417  0.47203814    -0.18800
F1431       F  0.22006029  0.36503551  0.43558794    -0.22600
F1432       F  0.18490543  0.36331922  0.45068778    -0.24200
C1433       C  0.20362277  0.25637078  0.28632283    -0.11000
C1434       C  0.20938595  0.27881578  0.29123837     0.11600
C1435       C  0.22988679  0.28774967  0.28279394    -0.02800
C1436       C  0.24258029  0.27460581  0.26736330    -0.05600
C1437       C  0.23790725  0.25119693  0.26252427    -0.16300
C1438       C  0.21800390  0.24186609  0.27381332     0.02600
C1439       C  0.19508893  0.29137820  0.30785694     0.12500
C1440       C  0.23896496  0.31066244  0.29101914     0.63200
H1441       H  0.25687686  0.28306069  0.25985350     0.12600
C1442       C  0.21038955  0.21712465  0.27464358     0.55300
H1443       H  0.18817783  0.24959532  0.29385657     0.08400
C1444       C  0.17688976  0.30547442  0.30123683    -0.05500
C1445       C  0.16506313  0.31756268  0.31819486    -0.06200
C1446       C  0.17073237  0.31647863  0.34195912    -0.15800
C1447       C  0.18662439  0.29841625  0.34824543    -0.01400
C1448       C  0.19895516  0.28729271  0.33090003    -0.08900
C1449       C  0.16948718  0.30696605  0.27634642     0.65400
H1450       H  0.15113093  0.32798032  0.31234688     0.10800
C1451       C  0.19206362  0.29053419  0.37246916     0.63800
H1452       H  0.21200288  0.27488244  0.33503158     0.08200
F1453       F  0.19039145  0.21452169  0.26216753    -0.19300
F1454       F  0.20623384  0.21105942  0.29705171    -0.15500
F1455       F  0.22615227  0.20209013  0.26676707    -0.19000
F1456       F  0.24236271  0.30994121  0.31437466    -0.22400
F1457       F  0.22359694  0.32777703  0.28596571    -0.23900
F1458       F  0.25962747  0.31616776  0.28112765    -0.17900
F1459       F  0.17343443  0.28004447  0.38209055    -0.20300
F1460       F  0.19918589  0.30855022  0.38544160    -0.21500
F1461       F  0.20961658  0.27474701  0.37330878    -0.18700
F1462       F  0.15109107  0.32145522  0.27325302    -0.18800
F1463       F  0.16315215  0.28559848  0.26864104    -0.22600
F1464       F  0.18722954  0.31484745  0.26315000    -0.24200
C1465       C  0.17400250  0.59598347  0.59468726    -0.11000
C1466       C  0.19761301  0.59485963  0.59436075     0.11600
C1467       C  0.21037901  0.61034384  0.60758314    -0.02800
C1468       C  0.19872225  0.62536253  0.62232916    -0.05600
C1469       C  0.17439945  0.62610997  0.62416112    -0.16300
C1470       C  0.16196090  0.61088826  0.60889778     0.02600
C1471       C  0.20764888  0.57679579  0.57971749     0.12500
C1472       C  0.23617109  0.61132947  0.60559189     0.63200
H1473       H  0.20908578  0.63649410  0.63272897     0.12600
C1474       C  0.13633480  0.60928716  0.60445130     0.55300
H1475       H  0.16464030  0.58456139  0.58338348     0.08400
C1476       C  0.20661284  0.55361143  0.58631242    -0.05500
C1477       C  0.20984842  0.53670670  0.56972952    -0.06200
C1478       C  0.21411646  0.54218673  0.54698925    -0.15800
C1479       C  0.21711842  0.56523335  0.54068945    -0.01400
C1480       C  0.21366471  0.58230770  0.55725847    -0.08900
C1481       C  0.20070944  0.54666369  0.61045614     0.65400
H1482       H  0.20780628  0.51901190  0.57417204     0.10800
C1483       C  0.22250506  0.57169955  0.51630017     0.63800
H1484       H  0.21403345  0.60007562  0.55241255     0.08200
F1485       F  0.12957752  0.58694543  0.60691744    -0.19300
F1486       F  0.13178278  0.61563827  0.58214950    -0.15500
F1487       F  0.12302569  0.62238130  0.61816069    -0.19000
F1488       F  0.24182273  0.61852324  0.58392694    -0.22400
F1489       F  0.24550709  0.59004320  0.60931948    -0.23900
F1490       F  0.24584707  0.62629459  0.62117433    -0.17900
F1491       F  0.20458641  0.56538055  0.50212067    -0.20300
F1492       F  0.24216779  0.56072557  0.50942533    -0.21500
F1493       F  0.22595602  0.59489197  0.51401169    -0.18700
F1494       F  0.20400309  0.52359803  0.61398007    -0.18800
F1495       F  0.17805261  0.55153206  0.61468298    -0.22600
F1496       F  0.21445174  0.55829446  0.62582236    -0.24200
C1497       C  0.20666280  0.68986391  0.66373465    -0.11000
C1498       C  0.21245180  0.68247810  0.68571838     0.11600
C1499       C  0.20280930  0.66165791  0.69307352    -0.02800
C1500       C  0.18531462  0.65144701  0.67981970    -0.05600
C1501       C  0.18095742  0.65715018  0.65658588    -0.16300
C1502       C  0.19377969  0.67652283  0.64812180     0.02600
C1503       C  0.22703477  0.69788036  0.70074690     0.12500
C1504       C  0.21113761  0.64876744  0.71400427     0.63200
H1505       H  0.17612972  0.63777131  0.68780739     0.12600
C1506       C  0.19370113  0.68550727  0.62363710     0.55300
H1507       H  0.21295555  0.70632718  0.65844811     0.08400
C1508       C  0.24650065  0.70973075  0.69279167    -0.05500
C1509       C  0.25574808  0.72761710  0.70607887    -0.06200
C1510       C  0.24952653  0.73189845  0.72899834    -0.15800
C1511       C  0.23304175  0.71617002  0.73841795    -0.01400
C1512       C  0.22043129  0.70191414  0.72333762    -0.08900
C1513       C  0.25891545  0.70365853  0.67093009     0.65400
H1514       H  0.26908295  0.73738516  0.69831977     0.10800
C1515       C  0.22920040  0.71224876  0.76392475     0.63800
H1516       H  0.20566808  0.69285723  0.72947182     0.08200
F1517       F  0.21324228  0.69810448  0.61945749    -0.19300
F1518       F  0.17520767  0.69966143  0.62004040    -0.15500
F1519       F  0.19367218  0.66837922  0.60769507    -0.19000
F1520       F  0.19546450  0.65092921  0.73135498    -0.22400
F1521       F  0.23230619  0.65620625  0.72158699    -0.23900
F1522       F  0.21339315  0.62591737  0.70871490    -0.17900
F1523       F  0.21025204  0.69873309  0.76785635    -0.20300
F1524       F  0.22583297  0.73211007  0.77583960    -0.21500
F1525       F  0.24777820  0.70089098  0.77298604    -0.18700
F1526       F  0.28224340  0.70338032  0.67496116    -0.18800
F1527       F  0.25424803  0.71983551  0.65445358    -0.22600
F1528       F  0.25304427  0.68234755  0.66272452    -0.24200
C1529       C  0.18686280  0.61656927  0.40860530    -0.11000
C1530       C  0.18908855  0.59468014  0.39974002     0.11600
C1531       C  0.18581680  0.59133571  0.37614660    -0.02800
C1532       C  0.17834852  0.60982467  0.36267372    -0.05600
C1533       C  0.17109309  0.63086020  0.37216271    -0.16300
C1534       C  0.17978347  0.63507372  0.39503988     0.02600
C1535       C  0.19335887  0.57562975  0.41599605     0.12500
C1536       C  0.18963003  0.56815028  0.36537442     0.63200
H1537       H  0.17836625  0.60743113  0.34462997     0.12600
C1538       C  0.18374904  0.65816242  0.40623212     0.55300
H1539       H  0.19113197  0.61932630  0.42644700     0.08400
C1540       C  0.21530985  0.56729414  0.42204814    -0.05500
C1541       C  0.21703384  0.54965401  0.43826357    -0.06200
C1542       C  0.19783658  0.54078457  0.44959583    -0.15800
C1543       C  0.17587097  0.55011556  0.44412434    -0.01400
C1544       C  0.17420311  0.56692225  0.42707799    -0.08900
C1545       C  0.23751599  0.57658806  0.41266133     0.65400
H1546       H  0.23386783  0.54316858  0.44250069     0.10800
C1547       C  0.15407707  0.54329570  0.45634644     0.63800
H1548       H  0.15770969  0.57398406  0.42246572     0.08200
F1549       F  0.20597523  0.65918414  0.41445416    -0.19300
F1550       F  0.16915526  0.66085724  0.42444515    -0.15500
F1551       F  0.18116939  0.67615763  0.39160335    -0.19000
F1552       F  0.17601165  0.55211962  0.37586588    -0.22400
F1553       F  0.21224242  0.56188995  0.36791687    -0.23900
F1554       F  0.18432970  0.56809098  0.34231410    -0.17900
F1555       F  0.15645564  0.54744705  0.47948233    -0.20300
F1556       F  0.14944829  0.52051685  0.45256129    -0.21500
F1557       F  0.13527949  0.55554159  0.44878984    -0.18700
F1558       F  0.24924964  0.55923777  0.40193294    -0.18800
F1559       F  0.25079323  0.58473115  0.43053330    -0.22600
F1560       F  0.23442500  0.59407972  0.39723510    -0.24200
C1561       C  0.17355773  0.68321147  0.30429516    -0.11000
C1562       C  0.19638357  0.68749130  0.30986706     0.11600
C1563       C  0.20534253  0.67812539  0.33010821    -0.02800
C1564       C  0.19096954  0.66506898  0.34423308    -0.05600
C1565       C  0.16708888  0.66151343  0.34005873    -0.16300
C1566       C  0.15856569  0.67079630  0.31856681     0.02600
C1567       C  0.20997940  0.70329416  0.29499316     0.12500
C1568       C  0.23023210  0.68197324  0.33680992     0.63200
H1569       H  0.19891034  0.65815956  0.35924945     0.12600
C1570       C  0.13447864  0.66850322  0.30851955     0.55300
H1571       H  0.16724449  0.69029803  0.28839078     0.08400
C1572       C  0.22032668  0.69635497  0.27460605    -0.05500
C1573       C  0.23307462  0.71233748  0.26197772    -0.06200
C1574       C  0.23607612  0.73578123  0.26827756    -0.15800
C1575       C  0.22253788  0.74293778  0.28782355    -0.01400
C1576       C  0.21101866  0.72624445  0.30096604    -0.08900
C1577       C  0.21726185  0.67216859  0.26577247     0.65400
H1578       H  0.23963223  0.70618985  0.24606576     0.10800
C1579       C  0.21837023  0.76754820  0.29539114     0.63800
H1580       H  0.20191334  0.73096341  0.31623854     0.08200
F1581       F  0.13398020  0.65098740  0.29276026    -0.19300
F1582       F  0.12813283  0.68831447  0.29734064    -0.15500
F1583       F  0.11809099  0.66490764  0.32450645    -0.19000
F1584       F  0.23440783  0.70497368  0.33955313    -0.22400
F1585       F  0.24430878  0.67357967  0.31998845    -0.23900
F1586       F  0.23598202  0.67124648  0.35706177    -0.17900
F1587       F  0.20860724  0.77999171  0.27803833    -0.20300
F1588       F  0.23814719  0.77761072  0.30301095    -0.21500
F1589       F  0.20326379  0.76901322  0.31338213    -0.18700
F1590       F  0.22964760  0.66819088  0.24616966    -0.18800
F1591       F  0.19447318  0.66830861  0.26073959    -0.22600
F1592       F  0.22438885  0.65671262  0.28207179    -0.24200
C1593       C  0.20668521  0.42578488  0.58595160    -0.11000
C1594       C  0.20382235  0.40362849  0.57740110     0.11600
C1595       C  0.20811097  0.39936124  0.55398723    -0.02800
C1596       C  0.21363480  0.41780425  0.53964619    -0.05600
C1597       C  0.21432829  0.44023003  0.54790187    -0.16300
C1598       C  0.21165822  0.44422388  0.57151872     0.02600
C1599       C  0.19066177  0.38730872  0.59173722     0.12500
C1600       C  0.20445526  0.37595099  0.54360780     0.63200
H1601       H  0.21531150  0.41507931  0.52145630     0.12600
C1602       C  0.21193442  0.46816588  0.58104965     0.55300
H1603       H  0.20269308  0.42893272  0.60368109     0.08400
C1604       C  0.19972484  0.37579770  0.61075308    -0.05500
C1605       C  0.18491327  0.36277274  0.62446887    -0.06200
C1606       C  0.16121419  0.35930502  0.61934839    -0.15800
C1607       C  0.15202850  0.37385241  0.60120268    -0.01400
C1608       C  0.16731799  0.38633985  0.58760712    -0.08900
C1609       C  0.22514417  0.37670390  0.61608810     0.65400
H1610       H  0.19242931  0.35505279  0.63934597     0.10800
C1611       C  0.12677985  0.37814596  0.59530140     0.63800
H1612       H  0.16112617  0.39637518  0.57337655     0.08200
F1613       F  0.21251792  0.46825789  0.60466159    -0.19300
F1614       F  0.19244707  0.47943151  0.57386537    -0.15500
F1615       F  0.23102321  0.47964988  0.57342065    -0.19000
F1616       F  0.18132842  0.37179484  0.54105756    -0.22400
F1617       F  0.21393657  0.35939436  0.55746423    -0.23900
F1618       F  0.21451065  0.37426117  0.52239802    -0.17900
F1619       F  0.11505611  0.38470066  0.61418411    -0.20300
F1620       F  0.11664471  0.35957184  0.58531393    -0.21500
F1621       F  0.12379003  0.39578847  0.57990292    -0.18700
F1622       F  0.23086456  0.36382705  0.63504408    -0.18800
F1623       F  0.23185788  0.39888097  0.62024554    -0.22600
F1624       F  0.23718968  0.36831718  0.59773624    -0.24200
C1625       C  0.19434716  0.30096896  0.66301448    -0.11000
C1626       C  0.19205661  0.30561233  0.68624868     0.11600
C1627       C  0.17657232  0.32260887  0.69286989    -0.02800
C1628       C  0.16198409  0.33244199  0.67627618    -0.05600
C1629       C  0.16365158  0.32833863  0.65227609    -0.16300
C1630       C  0.18126529  0.31208320  0.64574904     0.02600
C1631       C  0.20563951  0.29163725  0.70312912     0.12500
C1632       C  0.17555718  0.33037657  0.71757910     0.63200
H1633       H  0.14855578  0.34284707  0.68288981     0.12600
C1634       C  0.18575982  0.30376431  0.62139729     0.55300
H1635       H  0.20637712  0.28773117  0.65857130     0.08400
C1636       C  0.19693482  0.27197339  0.71388077    -0.05500
C1637       C  0.21172076  0.25841350  0.72728811    -0.06200
C1638       C  0.23575755  0.26183598  0.72900341    -0.15800
C1639       C  0.24370404  0.28368973  0.72034750    -0.01400
C1640       C  0.22840652  0.29761709  0.70751359    -0.08900
C1641       C  0.17232075  0.26383668  0.71155406     0.65400
H1642       H  0.20365638  0.24468896  0.73613195     0.10800
C1643       C  0.26739213  0.29411902  0.72463339     0.63800
H1644       H  0.23427118  0.31353066  0.70034020     0.08200
F1645       F  0.16898601  0.28858004  0.61469664    -0.19300
F1646       F  0.20644057  0.29243945  0.61989833    -0.15500
F1647       F  0.18698229  0.32128245  0.60598989    -0.19000
F1648       F  0.19688317  0.33807374  0.72440904    -0.22400
F1649       F  0.16916736  0.31255736  0.73146990    -0.23900
F1650       F  0.16014700  0.34796593  0.72059716    -0.17900
F1651       F  0.27306277  0.30947367  0.70770073    -0.20300
F1652       F  0.28458383  0.27816239  0.72519646    -0.21500
F1653       F  0.26734232  0.30613587  0.74484834    -0.18700
F1654       F  0.16317190  0.26084883  0.73301669    -0.18800
F1655       F  0.17195992  0.24322108  0.70019538    -0.22600
F1656       F  0.15830915  0.27863536  0.69978181    -0.24200
C1657       C  0.06903217  0.29485938  0.40482431    -0.11000
C1658       C  0.08812966  0.28102179  0.40849736     0.11600
C1659       C  0.08796922  0.26474394  0.42624039    -0.02800
C1660       C  0.06952583  0.26469048  0.44148521    -0.05600
C1661       C  0.05154704  0.28036855  0.43924804    -0.16300
C1662       C  0.05048915  0.29461821  0.41976866     0.02600
C1663       C  0.10935539  0.28765221  0.39672408     0.12500
C1664       C  0.10728864  0.24775600  0.42901265     0.63200
H1665       H  0.06964093  0.25323716  0.45593753     0.12600
C1666       C  0.03004050  0.30966347  0.41474903     0.55300
H1667       H  0.06944857  0.30701859  0.39098879     0.08400
C1668       C  0.11290016  0.28497338  0.37319588    -0.05500
C1669       C  0.13036366  0.29765335  0.36290550    -0.06200
C1670       C  0.14390950  0.31404797  0.37498714    -0.15800
C1671       C  0.14284167  0.31272106  0.39980041    -0.01400
C1672       C  0.12451109  0.30083721  0.40943779    -0.08900
C1673       C  0.09774430  0.27043055  0.35794251     0.65400
H1674       H  0.13141480  0.29670310  0.34450456     0.10800
C1675       C  0.15924036  0.32108256  0.41866045     0.63800
H1676       H  0.12173294  0.30198447  0.42770316     0.08200
F1677       F  0.01012690  0.29726155  0.41725380    -0.19300
F1678       F  0.03037158  0.31793994  0.39265890    -0.15500
F1679       F  0.03005969  0.32803599  0.42949662    -0.19000
F1680       F  0.12722128  0.25877754  0.43534129    -0.22400
F1681       F  0.11069115  0.23655352  0.40856048    -0.23900
F1682       F  0.10244882  0.23162344  0.44545401    -0.17900
F1683       F  0.17919797  0.33099888  0.41208195    -0.20300
F1684       F  0.16555193  0.30259824  0.43193688    -0.21500
F1685       F  0.14788243  0.33637512  0.43248785    -0.18700
F1686       F  0.11120896  0.25635233  0.34475744    -0.18800
F1687       F  0.08509706  0.28441749  0.34370458    -0.22600
F1688       F  0.08290837  0.25683083  0.37007224    -0.24200
C1689       C  0.10741263  0.29152119  0.61250303    -0.11000
C1690       C  0.10745017  0.29593231  0.58905632     0.11600
C1691       C  0.12462982  0.31011244  0.58019201    -0.02800
C1692       C  0.13886834  0.32205916  0.59550900    -0.05600
C1693       C  0.13547689  0.32213609  0.61948407    -0.16300
C1694       C  0.12201308  0.30339463  0.62796862     0.02600
C1695       C  0.08704297  0.28975190  0.57492222     0.12500
C1696       C  0.12696572  0.31394204  0.55460334     0.63200
H1697       H  0.15172921  0.33267974  0.58812339     0.12600
C1698       C  0.12285324  0.29492269  0.65255426     0.55300
H1699       H  0.09500473  0.27940585  0.61869092     0.08400
C1700       C  0.08492663  0.26933589  0.56224053    -0.05500
C1701       C  0.06721877  0.26757240  0.54566901    -0.06200
C1702       C  0.05130501  0.28527243  0.54227954    -0.15800
C1703       C  0.05191594  0.30436684  0.55729830    -0.01400
C1704       C  0.06999678  0.30630960  0.57300308    -0.08900
C1705       C  0.10065486  0.24935869  0.56691596     0.65400
H1706       H  0.06596314  0.25256951  0.53498638     0.10800
C1707       C  0.03396340  0.32312036  0.55685171     0.63800
H1708       H  0.07154026  0.32154431  0.58323981     0.08200
F1709       F  0.14358650  0.28455455  0.65665138    -0.19300
F1710       F  0.10613675  0.27880055  0.65669334    -0.15500
F1711       F  0.11970903  0.31234555  0.66797232    -0.19000
F1712       F  0.10738623  0.32391766  0.54588828    -0.22400
F1713       F  0.13045168  0.29344851  0.54364137    -0.23900
F1714       F  0.14519024  0.32802911  0.54953193    -0.17900
F1715       F  0.03468145  0.33616301  0.57654232    -0.20300
F1716       F  0.01230071  0.31381055  0.55519181    -0.21500
F1717       F  0.03772182  0.33745428  0.53858203    -0.18700
F1718       F  0.09668759  0.23160136  0.55184740    -0.18800
F1719       F  0.09694783  0.24154519  0.58879682    -0.22600
F1720       F  0.12326362  0.25575503  0.56510373    -0.24200
C1721       C  0.07486637  0.40156209  0.30887114    -0.11000
C1722       C  0.08796027  0.40002634  0.32896474     0.11600
C1723       C  0.08594539  0.41716375  0.34579965    -0.02800
C1724       C  0.07013570  0.43483678  0.34234732    -0.05600
C1725       C  0.05640062  0.43629125  0.32255785    -0.16300
C1726       C  0.05907617  0.41945753  0.30523747     0.02600
C1727       C  0.10402624  0.38054724  0.33214345     0.12500
C1728       C  0.10040617  0.41670023  0.36746649     0.63200
H1729       H  0.06848093  0.44787281  0.35528875     0.12600
C1730       C  0.04529358  0.41996759  0.28318380     0.55300
H1731       H  0.07712763  0.38848913  0.29605524     0.08400
C1732       C  0.09725479  0.35997660  0.34213901    -0.05500
C1733       C  0.11418068  0.34467737  0.34978179    -0.06200
C1734       C  0.13814522  0.34764453  0.34595930    -0.15800
C1735       C  0.14401847  0.36780616  0.33288283    -0.01400
C1736       C  0.12694536  0.38381448  0.32717070    -0.08900
C1737       C  0.07206683  0.35452492  0.34523008     0.65400
H1738       H  0.10791693  0.33144318  0.36047281     0.10800
C1739       C  0.16777099  0.37556089  0.32608491     0.63800
H1740       H  0.13166589  0.39978171  0.31921501     0.08200
F1741       F  0.04945757  0.40107707  0.26969473    -0.19300
F1742       F  0.05105247  0.43907075  0.27074952    -0.15500
F1743       F  0.02219871  0.42033051  0.28794350    -0.19000
F1744       F  0.12328274  0.41831438  0.36207105    -0.22400
F1745       F  0.09667469  0.39661598  0.37904881    -0.23900
F1746       F  0.09524453  0.43453416  0.38198775    -0.17900
F1747       F  0.16717609  0.38443427  0.30421443    -0.20300
F1748       F  0.18347057  0.35850359  0.32573002    -0.21500
F1749       F  0.17515699  0.39242516  0.34090161    -0.18700
F1750       F  0.06875978  0.33346897  0.35519860    -0.18800
F1751       F  0.06129470  0.35424102  0.32414674    -0.22600
F1752       F  0.06186510  0.37077318  0.35882072    -0.24200
C1753       C  0.10363281  0.60285220  0.34883294    -0.11000
C1754       C  0.11289390  0.58886315  0.33215421     0.11600
C1755       C  0.13165943  0.59700822  0.31958603    -0.02800
C1756       C  0.14261975  0.61727658  0.32691587    -0.05600
C1757       C  0.13517783  0.63019874  0.34596487    -0.16300
C1758       C  0.11214787  0.62475659  0.35320570     0.02600
C1759       C  0.09908846  0.56838177  0.32592738     0.12500
C1760       C  0.14026798  0.58423788  0.29888378     0.63200
H1761       H  0.15782262  0.62272570  0.31814187     0.12600
C1762       C  0.09299171  0.64089936  0.36059639     0.55300
H1763       H  0.08747819  0.59777863  0.35625854     0.08400
C1764       C  0.09925770  0.54850855  0.33957209    -0.05500
C1765       C  0.08147690  0.53248021  0.33683727    -0.06200
C1766       C  0.06347929  0.53577247  0.32112935    -0.15800
C1767       C  0.06369071  0.55543107  0.30704272    -0.01400
C1768       C  0.08158885  0.57131439  0.30969734    -0.08900
C1769       C  0.11802905  0.54443638  0.35713513     0.65400
H1770       H  0.08121103  0.51737733  0.34738956     0.10800
C1771       C  0.04423542  0.56068774  0.29060391     0.63800
H1772       H  0.08130999  0.58703632  0.30008982     0.08200
F1773       F  0.08504983  0.63451881  0.38176834    -0.19300
F1774       F  0.07495166  0.63887208  0.34525521    -0.15500
F1775       F  0.09847589  0.66359201  0.36105728    -0.19000
F1776       F  0.12302882  0.58245230  0.28271723    -0.22400
F1777       F  0.14723938  0.56267000  0.30514795    -0.23900
F1778       F  0.15855235  0.59522357  0.28890362    -0.17900
F1779       F  0.04683958  0.58169205  0.28027350    -0.20300
F1780       F  0.02385883  0.56094320  0.30232952    -0.21500
F1781       F  0.04328545  0.54441270  0.27357547    -0.18700
F1782       F  0.11509567  0.52404967  0.36854615    -0.18800
F1783       F  0.11833920  0.56172511  0.37315703    -0.22600
F1784       F  0.13887000  0.54372419  0.34633610    -0.24200
C1785       C  0.09018125  0.57288459  0.70353981    -0.11000
C1786       C  0.09866765  0.57475745  0.68127732     0.11600
C1787       C  0.09046722  0.55963343  0.66427864    -0.02800
C1788       C  0.07319245  0.54409810  0.66975368    -0.05600
C1789       C  0.06328413  0.54323341  0.69150330    -0.16300
C1790       C  0.07238559  0.55751368  0.70899691     0.02600
C1791       C  0.11526009  0.59333379  0.67569629     0.12500
C1792       C  0.09921268  0.56051842  0.64008026     0.63200
H1793       H  0.06684870  0.53273069  0.65660609     0.12600
C1794       C  0.06309577  0.55715974  0.73304652     0.55300
H1795       H  0.09713472  0.58418836  0.71645115     0.08400
C1796       C  0.10800615  0.61552349  0.67060883    -0.05500
C1797       C  0.12384843  0.63110359  0.66160592    -0.06200
C1798       C  0.14744870  0.62620069  0.65776774    -0.15800
C1799       C  0.15487646  0.60419652  0.66648055    -0.01400
C1800       C  0.13846766  0.58833708  0.67431011    -0.08900
C1801       C  0.08314020  0.62243477  0.67360349     0.65400
H1802       H  0.11647336  0.64655696  0.65575118     0.10800
C1803       C  0.17916190  0.59494472  0.66827542     0.63800
H1804       H  0.14387030  0.57137978  0.67929205     0.08200
F1805       F  0.07376497  0.57307711  0.74694983    -0.19300
F1806       F  0.06661715  0.53593682  0.74260180    -0.15500
F1807       F  0.03997892  0.56202275  0.73259614    -0.19000
F1808       F  0.12254787  0.55697538  0.64007470    -0.22400
F1809       F  0.09415335  0.58155898  0.63089339    -0.23900
F1810       F  0.08929190  0.54408639  0.62621853    -0.17900
F1811       F  0.18293172  0.58695986  0.69019867    -0.20300
F1812       F  0.19616854  0.61030202  0.66410848    -0.21500
F1813       F  0.18143841  0.57694592  0.65332835    -0.18700
F1814       F  0.07953950  0.64516356  0.66870202    -0.18800
F1815       F  0.07665753  0.61901085  0.69592846    -0.22600
F1816       F  0.06926387  0.60960264  0.65934859    -0.24200
C1817       C  0.09285423  0.37521491  0.66081886    -0.11000
C1818       C  0.10412022  0.39390328  0.67009311     0.11600
C1819       C  0.12805671  0.39389482  0.67085914    -0.02800
C1820       C  0.13990454  0.37621728  0.65979222    -0.05600
C1821       C  0.12914645  0.35765770  0.64794694    -0.16300
C1822       C  0.10405988  0.35769575  0.64858407     0.02600
C1823       C  0.08987534  0.41405100  0.67647032     0.12500
C1824       C  0.14097513  0.41233506  0.68377716     0.63200
H1825       H  0.15834828  0.37685852  0.66031120     0.12600
C1826       C  0.08726125  0.34266954  0.63510976     0.55300
H1827       H  0.07440534  0.37552083  0.66203472     0.08400
C1828       C  0.08208545  0.42958268  0.65967295    -0.05500
C1829       C  0.06596594  0.44615382  0.66564465    -0.06200
C1830       C  0.05691719  0.44785476  0.68772088    -0.15800
C1831       C  0.06575472  0.43308950  0.70499399    -0.01400
C1832       C  0.08190943  0.41622960  0.69887035    -0.08900
C1833       C  0.08953847  0.42787797  0.63500718     0.65400
H1834       H  0.05979243  0.45763799  0.65257922     0.10800
C1835       C  0.05817909  0.43464909  0.72964472     0.63800
H1836       H  0.08806684  0.40415141  0.71141281     0.08200
F1837       F  0.09440461  0.33899117  0.61336753    -0.19300
F1838       F  0.06601857  0.35281445  0.63245540    -0.15500
F1839       F  0.08344459  0.32245114  0.64627009    -0.19000
F1840       F  0.13449828  0.41211501  0.70639736    -0.22400
F1841       F  0.13610363  0.43345043  0.67460854    -0.23900
F1842       F  0.16438096  0.40911186  0.68303915    -0.17900
F1843       F  0.06879729  0.41851159  0.74325793    -0.20300
F1844       F  0.03485885  0.43117114  0.73092529    -0.21500
F1845       F  0.06368048  0.45585017  0.73841291    -0.18700
F1846       F  0.08269529  0.44656812  0.62232843    -0.18800
F1847       F  0.07982758  0.40873482  0.62523578    -0.22600
F1848       F  0.11306299  0.42657595  0.63380667    -0.24200
C1849       C  0.09323435  0.71258951  0.57656248    -0.11000
C1850       C  0.09256326  0.69354330  0.59099130     0.11600
C1851       C  0.07268599  0.67981378  0.59123859    -0.02800
C1852       C  0.05499353  0.68437743  0.57564757    -0.05600
C1853       C  0.05648100  0.70198761  0.55963350    -0.16300
C1854       C  0.07547003  0.71708309  0.56066845     0.02600
C1855       C  0.11381154  0.68598739  0.60304524     0.12500
C1856       C  0.07058752  0.65970277  0.60722067     0.63200
H1857       H  0.04009877  0.67343748  0.57515598     0.12600
C1858       C  0.07754511  0.73714633  0.54456016     0.55300
H1859       H  0.10837246  0.72317958  0.57703218     0.08400
C1860       C  0.13030531  0.67300855  0.59161148    -0.05500
C1861       C  0.14665723  0.66120916  0.60457730    -0.06200
C1862       C  0.14734956  0.66132068  0.62889204    -0.15800
C1863       C  0.13398620  0.67912346  0.63951919    -0.01400
C1864       C  0.11665642  0.69002506  0.62642321    -0.08900
C1865       C  0.13042752  0.67131256  0.56568112     0.65400
H1866       H  0.15879029  0.65145705  0.59509230     0.10800
C1867       C  0.13749040  0.68771244  0.66400652     0.63800
H1868       H  0.10491301  0.70178802  0.63434272     0.08200
F1869       F  0.09807991  0.74854893  0.54746559    -0.19300
F1870       F  0.06007520  0.75240975  0.54861321    -0.15500
F1871       F  0.07627667  0.72972935  0.52219252    -0.19000
F1872       F  0.07240512  0.66718694  0.62948518    -0.22400
F1873       F  0.08768271  0.64421506  0.60283158    -0.23900
F1874       F  0.04985694  0.64857947  0.60473017    -0.17900
F1875       F  0.15595407  0.70231134  0.66473617    -0.20300
F1876       F  0.14106436  0.67049546  0.67951077    -0.21500
F1877       F  0.11867024  0.69975110  0.67151874    -0.18700
F1878       F  0.14748157  0.65707027  0.55783974    -0.18800
F1879       F  0.13411526  0.69264230  0.55650966    -0.22600
F1880       F  0.10975785  0.66294010  0.55772522    -0.24200
C1881       C  0.07076985  0.68334361  0.42218287    -0.11000
C1882       C  0.09360508  0.68761109  0.42827278     0.11600
C1883       C  0.09867615  0.69916049  0.44891714    -0.02800
C1884       C  0.08069363  0.70391541  0.46404284    -0.05600
C1885       C  0.05810074  0.69777378  0.45876026    -0.16300
C1886       C  0.05282923  0.68812297  0.43720077     0.02600
C1887       C  0.11161556  0.67865330  0.41294319     0.12500
C1888       C  0.12291478  0.70628390  0.45486625     0.63200
H1889       H  0.08424483  0.71165172  0.48046335     0.12600
C1890       C  0.02835307  0.68265541  0.43027997     0.55300
H1891       H  0.06724191  0.67517047  0.40594977     0.08400
C1892       C  0.11744706  0.65548085  0.41290329    -0.05500
C1893       C  0.13095039  0.64717825  0.39513943    -0.06200
C1894       C  0.14002381  0.66095207  0.37732875    -0.15800
C1895       C  0.13581355  0.68530795  0.37920829    -0.01400
C1896       C  0.12106736  0.69308673  0.39667718    -0.08900
C1897       C  0.10884034  0.63925288  0.43117853     0.65400
H1898       H  0.13381892  0.62900838  0.39455438     0.10800
C1899       C  0.14446038  0.70385370  0.36316771     0.63800
H1900       H  0.11576735  0.71071353  0.39735450     0.08200
F1901       F  0.01989777  0.66547687  0.44387993    -0.19300
F1902       F  0.02674013  0.67554999  0.40779794    -0.15500
F1903       F  0.01492330  0.70185154  0.43272375    -0.19000
F1904       F  0.13063289  0.72155528  0.43877233    -0.22400
F1905       F  0.13714881  0.68754137  0.45516129    -0.23900
F1906       F  0.12422801  0.71668840  0.47603632    -0.17900
F1907       F  0.14012344  0.72549323  0.37149514    -0.20300
F1908       F  0.13338716  0.70239259  0.34248071    -0.21500
F1909       F  0.16772515  0.70283874  0.36034221    -0.18700
F1910       F  0.11746834  0.61748145  0.42849468    -0.18800
F1911       F  0.08528945  0.63781480  0.43033360    -0.22600
F1912       F  0.11548146  0.64698608  0.45249338    -0.24200
C1913       C  0.91098697  0.65879798  0.61202147    -0.11000
C1914       C  0.90391548  0.67918367  0.60195320     0.11600
C1915       C  0.88052918  0.68522815  0.60312412    -0.02800
C1916       C  0.86576834  0.67135814  0.61604524    -0.05600
C1917       C  0.87269867  0.64989637  0.62499035    -0.16300
C1918       C  0.89460691  0.64232621  0.61738447     0.02600
C1919       C  0.91966792  0.68850214  0.58459801     0.12500
C1920       C  0.87030124  0.70584433  0.59130368     0.63200
H1921       H  0.84863711  0.67753453  0.61902449     0.12600
C1922       C  0.89758470  0.62085420  0.60315487     0.55300
H1923       H  0.92831182  0.65310553  0.60879852     0.08400
C1924       C  0.93755142  0.70385991  0.58989402    -0.05500
C1925       C  0.95452516  0.70790654  0.57340388    -0.06200
C1926       C  0.95423127  0.69644501  0.55232856    -0.15800
C1927       C  0.93546322  0.68210263  0.54664966    -0.01400
C1928       C  0.91838507  0.67864170  0.56288652    -0.08900
C1929       C  0.93881431  0.71531177  0.61303288     0.65400
H1930       H  0.96882507  0.71897711  0.57736353     0.10800
C1931       C  0.93336875  0.67027434  0.52362318     0.63800
H1932       H  0.90441729  0.66704333  0.55925837     0.08200
F1933       F  0.91284720  0.60624444  0.61362404    -0.19300
F1934       F  0.90624812  0.62609666  0.58185478    -0.15500
F1935       F  0.87710306  0.61017176  0.59908988    -0.19000
F1936       F  0.85375398  0.69864630  0.57591709    -0.22400
F1937       F  0.88621012  0.71859013  0.57962645    -0.23900
F1938       F  0.86021846  0.71982303  0.60730379    -0.17900
F1939       F  0.94987334  0.65360381  0.52164949    -0.20300
F1940       F  0.93590491  0.68599119  0.50634639    -0.21500
F1941       F  0.91227479  0.65993808  0.52071421    -0.18700
F1942       F  0.95638091  0.73106755  0.61421358    -0.18800
F1943       F  0.94241981  0.69914089  0.62977988    -0.22600
F1944       F  0.91852184  0.72652307  0.61725875    -0.24200
C1945       C  0.89996670  0.61587454  0.69145681    -0.11000
C1946       C  0.90986470  0.59728379  0.68065977     0.11600
C1947       C  0.90010711  0.58913417  0.66027746    -0.02800
C1948       C  0.88288352  0.60201822  0.64978744    -0.05600
C1949       C  0.87297865  0.62178037  0.65938422    -0.16300
C1950       C  0.87968001  0.62602761  0.68301073     0.02600
C1951       C  0.92885017  0.58481158  0.69190466     0.12500
C1952       C  0.90774985  0.56672797  0.64963441     0.63200
H1953       H  0.87639836  0.59557842  0.63405160     0.12600
C1954       C  0.86542453  0.63613844  0.70226550     0.55300
H1955       H  0.90658442  0.62060388  0.70815443     0.08400
C1956       C  0.95179504  0.58911824  0.68623548    -0.05500
C1957       C  0.96811562  0.57208318  0.69057651    -0.06200
C1958       C  0.96212321  0.55147477  0.70110897    -0.15800
C1959       C  0.93967444  0.54876875  0.70981636    -0.01400
C1960       C  0.92345065  0.56579759  0.70515621    -0.08900
C1961       C  0.95864911  0.61141938  0.67526227     0.65400
H1962       H  0.98549529  0.57427678  0.68477217     0.10800
C1963       C  0.93113870  0.52818906  0.72288545     0.63800
H1964       H  0.90584114  0.56324727  0.71016134     0.08200
F1965       F  0.87366925  0.65727329  0.70830740    -0.19300
F1966       F  0.86709252  0.62238981  0.72140784    -0.15500
F1967       F  0.84255617  0.63735758  0.69767090    -0.19000
F1968       F  0.90305741  0.54896631  0.66428613    -0.22400
F1969       F  0.93092229  0.56725939  0.64539002    -0.23900
F1970       F  0.89660192  0.56222531  0.62923780    -0.17900
F1971       F  0.92422154  0.53518229  0.74427860    -0.20300
F1972       F  0.94723483  0.51131544  0.72570247    -0.21500
F1973       F  0.91257012  0.51883037  0.71149572    -0.18700
F1974       F  0.98199944  0.61269841  0.67199476    -0.18800
F1975       F  0.95234525  0.62925242  0.68928979    -0.22600
F1976       F  0.94786757  0.61384515  0.65433049    -0.24200
C1977       C  0.82753806  0.58299202  0.61465721    -0.11000
C1978       C  0.82476805  0.59076826  0.59229886     0.11600
C1979       C  0.82523278  0.61446204  0.58837955    -0.02800
C1980       C  0.83246735  0.62899990  0.60626845    -0.05600
C1981       C  0.84050687  0.62071059  0.62766156    -0.16300
C1982       C  0.83374713  0.59766128  0.63274739     0.02600
C1983       C  0.82069326  0.57359339  0.57379833     0.12500
C1984       C  0.81859340  0.62431972  0.56532355     0.63200
H1985       H  0.83281712  0.64692965  0.60296125     0.12600
C1986       C  0.83141893  0.58728951  0.65632186     0.55300
H1987       H  0.82461559  0.56508972  0.61807664     0.08400
C1988       C  0.83871742  0.56045847  0.56463003    -0.05500
C1989       C  0.83360372  0.54322941  0.54874803    -0.06200
C1990       C  0.81123426  0.53895884  0.54092061    -0.15800
C1991       C  0.79316206  0.55277748  0.54952466    -0.01400
C1992       C  0.79827807  0.56942361  0.56627261    -0.08900
C1993       C  0.86346732  0.56508247  0.57087909     0.65400
H1994       H  0.84739707  0.53302008  0.54209943     0.10800
C1995       C  0.76863416  0.55053448  0.54108814     0.63800
H1996       H  0.78472091  0.57936623  0.57378436     0.08200
F1997       F  0.84712024  0.56991891  0.65916300    -0.19300
F1998       F  0.80973757  0.57815244  0.65836469    -0.15500
F1999       F  0.83407144  0.60278101  0.67365372    -0.19000
F2000       F  0.79583504  0.61977227  0.56077945    -0.22400
F2001       F  0.83179638  0.61475855  0.54840021    -0.23900
F2002       F  0.82159348  0.64768581  0.56462630    -0.17900
F2003       F  0.76000206  0.52946865  0.54701881    -0.20300
F2004       F  0.76779649  0.55313382  0.51764245    -0.21500
F2005       F  0.75456063  0.56693877  0.55045513    -0.18700
F2006       F  0.87825195  0.54989627  0.56060657    -0.18800
F2007       F  0.86662388  0.56333980  0.59415456    -0.22600
F2008       F  0.86919677  0.58667912  0.56368852    -0.24200
C2009       C  0.83489250  0.69033223  0.67732530    -0.11000
C2010       C  0.81322649  0.68299080  0.68409612     0.11600
C2011       C  0.80535982  0.66160173  0.67605451    -0.02800
C2012       C  0.81894902  0.64924500  0.66067068    -0.05600
C2013       C  0.84230054  0.65450881  0.65654814    -0.16300
C2014       C  0.85053714  0.67580060  0.66620408     0.02600
C2015       C  0.79952923  0.69746585  0.70024984     0.12500
C2016       C  0.78373943  0.65048837  0.68515161     0.63200
H2017       H  0.81153395  0.63392692  0.65378144     0.12600
C2018       C  0.87512188  0.68479701  0.66612617     0.55300
H2019       H  0.84032465  0.70726183  0.68230574     0.08400
C2020       C  0.80720406  0.70329476  0.72247144    -0.05500
C2021       C  0.79307534  0.71682971  0.73633765    -0.06200
C2022       C  0.76970039  0.72153549  0.73115155    -0.15800
C2023       C  0.76136324  0.71212568  0.70978760    -0.01400
C2024       C  0.77728952  0.70356964  0.69392557    -0.08900
C2025       C  0.82947046  0.69409542  0.73244269     0.65400
H2026       H  0.80037769  0.72224418  0.75227877     0.10800
C2027       C  0.73612166  0.70881607  0.70360832     0.63800
H2028       H  0.77195020  0.69975624  0.67665003     0.08200
F2029       F  0.88066163  0.69407385  0.68717152    -0.19300
F2030       F  0.87704509  0.70212123  0.65037694    -0.15500
F2031       F  0.89125321  0.66834505  0.66180649    -0.19000
F2032       F  0.76456609  0.66021893  0.67539986    -0.22400
F2033       F  0.78288958  0.65283200  0.70860716    -0.23900
F2034       F  0.78308425  0.62740670  0.68038101    -0.17900
F2035       F  0.73320701  0.69989638  0.68189371    -0.20300
F2036       F  0.72405360  0.72886831  0.70411014    -0.21500
F2037       F  0.72653202  0.69336915  0.71843368    -0.18700
F2038       F  0.83138534  0.69827370  0.75563465    -0.18800
F2039       F  0.84800543  0.70409284  0.72211228    -0.22600
F2040       F  0.83033262  0.67078808  0.72939685    -0.24200
C2041       C  0.92502594  0.70576094  0.43542703    -0.11000
C2042       C  0.92480117  0.68523724  0.42326496     0.11600
C2043       C  0.94300678  0.66967470  0.42603944    -0.02800
C2044       C  0.95993850  0.67432215  0.44254526    -0.05600
C2045       C  0.95971853  0.69433652  0.45578831    -0.16300
C2046       C  0.94232622  0.71081588  0.45158125     0.02600
C2047       C  0.90513666  0.68007163  0.40789936     0.12500
C2048       C  0.94453447  0.64830586  0.41147556     0.63200
H2049       H  0.97351606  0.66212105  0.44530831     0.12600
C2050       C  0.94151223  0.73341826  0.46417575     0.55300
H2051       H  0.91119995  0.71763114  0.43236680     0.08400
C2052       C  0.88609346  0.66780131  0.41545510    -0.05500
C2053       C  0.87080964  0.65894971  0.39909169    -0.06200
C2054       C  0.87355027  0.66220388  0.37515907    -0.15800
C2055       C  0.88892066  0.68068416  0.36914867    -0.01400
C2056       C  0.90550982  0.68766312  0.38542329    -0.08900
C2057       C  0.88196126  0.66433561  0.44076912     0.65400
H2058       H  0.85671147  0.64921650  0.40547765     0.10800
C2059       C  0.88919312  0.69313188  0.34619468     0.63800
H2060       H  0.91926849  0.69900643  0.38076134     0.08200
F2061       F  0.92257618  0.74616951  0.45798335    -0.19300
F2062       F  0.96070936  0.74610144  0.45910790    -0.15500
F2063       F  0.94055815  0.72975012  0.48743274    -0.19000
F2064       F  0.94471962  0.65424189  0.38868808    -0.22400
F2065       F  0.92599284  0.63433549  0.41542541    -0.23900
F2066       F  0.96421912  0.63603181  0.41607406    -0.17900
F2067       F  0.86886273  0.70451637  0.34281394    -0.20300
F2068       F  0.89305043  0.67853043  0.32825641    -0.21500
F2069       F  0.90621530  0.70948978  0.34541810    -0.18700
F2070       F  0.86170195  0.65292873  0.44477950    -0.18800
F2071       F  0.88076986  0.68529891  0.45146121    -0.22600
F2072       F  0.89958850  0.65192428  0.45043360    -0.24200
C2073       C  0.81315847  0.60533252  0.38635002    -0.11000
C2074       C  0.82742256  0.59243812  0.40036739     0.11600
C2075       C  0.85114464  0.59590301  0.39938304    -0.02800
C2076       C  0.85966143  0.61259356  0.38463270    -0.05600
C2077       C  0.84575091  0.62706155  0.37067305    -0.16300
C2078       C  0.82129769  0.62172185  0.37062507     0.02600
C2079       C  0.81730010  0.57394426  0.41453200     0.12500
C2080       C  0.86757228  0.58210525  0.41411746     0.63200
H2081       H  0.87797175  0.61508218  0.38450016     0.12600
C2082       C  0.80151672  0.63021695  0.35544248     0.55300
H2083       H  0.79501810  0.60158799  0.38704478     0.08400
C2084       C  0.80670460  0.57804194  0.43578778    -0.05500
C2085       C  0.80070835  0.55924380  0.44952763    -0.06200
C2086       C  0.80521932  0.53674426  0.44269171    -0.15800
C2087       C  0.81453306  0.53279707  0.42073512    -0.01400
C2088       C  0.81979711  0.55151890  0.40688691    -0.08900
C2089       C  0.80223815  0.60211577  0.44403970     0.65400
H2090       H  0.79359612  0.56202518  0.46629167     0.10800
C2091       C  0.81970460  0.50947243  0.41088177     0.63800
H2092       H  0.82717150  0.54858832  0.39023203     0.08200
F2093       F  0.78645207  0.64255459  0.36864282    -0.19300
F2094       F  0.78987931  0.61155158  0.34667586    -0.15500
F2095       F  0.80688096  0.64306576  0.33693939    -0.19000
F2096       F  0.86791114  0.55977634  0.40668912    -0.22400
F2097       F  0.86077625  0.58269780  0.43663339    -0.23900
F2098       F  0.88966092  0.59046019  0.41326452    -0.17900
F2099       F  0.80685955  0.50638089  0.39119611    -0.20300
F2100       F  0.81496233  0.49179719  0.42549884    -0.21500
F2101       F  0.84261198  0.50830280  0.40544112    -0.18700
F2102       F  0.79328848  0.60241698  0.46581096    -0.18800
F2103       F  0.78674693  0.61258941  0.42955855    -0.22600
F2104       F  0.82234406  0.61448549  0.44437502    -0.24200
C2105       C  0.89027861  0.59267573  0.32920005    -0.11000
C2106       C  0.91332023  0.59757012  0.33236360     0.11600
C2107       C  0.91965189  0.61989253  0.33797273    -0.02800
C2108       C  0.90264024  0.63504944  0.34539170    -0.05600
C2109       C  0.87865061  0.63064206  0.34354652    -0.16300
C2110       C  0.87308199  0.60918610  0.33240267     0.02600
C2111       C  0.93036407  0.57889210  0.33001508     0.12500
C2112       C  0.94431936  0.62768234  0.33581191     0.63200
H2113       H  0.90917908  0.65004346  0.35318433     0.12600
C2114       C  0.84972393  0.60148842  0.32415071     0.55300
H2115       H  0.88569700  0.57565570  0.32356963     0.08400
C2116       C  0.93786658  0.56619877  0.34909759    -0.05500
C2117       C  0.95404150  0.54878666  0.34588095    -0.06200
C2118       C  0.96251464  0.54301669  0.32413968    -0.15800
C2119       C  0.95408456  0.55534916  0.30482286    -0.01400
C2120       C  0.93829354  0.57319985  0.30828772    -0.08900
C2121       C  0.92814622  0.57058159  0.37267523     0.65400
H2122       H  0.95988828  0.53924619  0.36057134     0.10800
C2123       C  0.96123239  0.54989596  0.28056813     0.63800
H2124       H  0.93175955  0.58289739  0.29396672     0.08200
F2125       F  0.84038170  0.58646952  0.33961632    -0.19300
F2126       F  0.85163544  0.59044038  0.30336080    -0.15500
F2127       F  0.83522121  0.61923213  0.32051638    -0.19000
F2128       F  0.95160845  0.62369466  0.31379183    -0.22400
F2129       F  0.95828605  0.61592753  0.35079417    -0.23900
F2130       F  0.94673825  0.65073695  0.34012287    -0.17900
F2131       F  0.95113951  0.56434254  0.26480895    -0.20300
F2132       F  0.95473011  0.52792486  0.27501655    -0.21500
F2133       F  0.98461346  0.55215911  0.27852350    -0.18700
F2134       F  0.93733224  0.55608537  0.38891612    -0.18800
F2135       F  0.90476780  0.56728982  0.37209285    -0.22600
F2136       F  0.93267059  0.59265551  0.37951269    -0.24200
C2137       C  0.81656373  0.69182890  0.33431977    -0.11000
C2138       C  0.82058820  0.69095506  0.31090658     0.11600
C2139       C  0.83893434  0.67780097  0.30286320    -0.02800
C2140       C  0.85020640  0.66294691  0.31804649    -0.05600
C2141       C  0.84591009  0.66247778  0.34188690    -0.16300
C2142       C  0.82944074  0.67893700  0.35030448     0.02600
C2143       C  0.80564336  0.70458602  0.29526021     0.12500
C2144       C  0.84760817  0.68066801  0.27865794     0.63200
H2145       H  0.86322251  0.65212543  0.31102601     0.12600
C2146       C  0.82523366  0.68436836  0.37546191     0.55300
H2147       H  0.80335700  0.70336836  0.33996294     0.08400
C2148       C  0.78723717  0.69473711  0.28327444    -0.05500
C2149       C  0.77520154  0.70793062  0.26714946    -0.06200
C2150       C  0.77879134  0.73173561  0.26386781    -0.15800
C2151       C  0.79675273  0.74189851  0.27805045    -0.01400
C2152       C  0.80989835  0.72777816  0.29271472    -0.08900
C2153       C  0.77979698  0.67039186  0.28813117     0.65400
H2154       H  0.76344953  0.69867974  0.25660554     0.10800
C2155       C  0.80450256  0.76683602  0.27738692     0.63800
H2156       H  0.82421174  0.73472626  0.30228069     0.08200
F2157       F  0.80542500  0.69686186  0.37841164    -0.19300
F2158       F  0.84299925  0.69733715  0.38409271    -0.15500
F2159       F  0.82277886  0.66506577  0.38836306    -0.19000
F2160       F  0.85408562  0.70306883  0.27547309    -0.22400
F2161       F  0.83080827  0.67520215  0.26290143    -0.23900
F2162       F  0.86640202  0.66706661  0.27441631    -0.17900
F2163       F  0.81620316  0.77283492  0.29714868    -0.20300
F2164       F  0.78656655  0.78182806  0.27564844    -0.21500
F2165       F  0.81926136  0.77012638  0.25945882    -0.18700
F2166       F  0.76083333  0.66410301  0.27531672    -0.18800
F2167       F  0.77419272  0.66849115  0.31089973    -0.22600
F2168       F  0.79715712  0.65525757  0.28338430    -0.24200
C2169       C  0.78754814  0.41621738  0.41046268    -0.11000
C2170       C  0.80217260  0.39795614  0.41568491     0.11600
C2171       C  0.81145035  0.39632029  0.43808543    -0.02800
C2172       C  0.80919196  0.41486704  0.45293093    -0.05600
C2173       C  0.79613464  0.43399242  0.44709509    -0.16300
C2174       C  0.78330296  0.43373984  0.42643432     0.02600
C2175       C  0.81270122  0.38481213  0.39670161     0.12500
C2176       C  0.82517318  0.37606274  0.44659770     0.63200
H2177       H  0.81802339  0.41450914  0.46928023     0.12600
C2178       C  0.76562366  0.45185208  0.42106454     0.55300
H2179       H  0.78059924  0.41747631  0.39336228     0.08400
C2180       C  0.80142545  0.36819464  0.38338916    -0.05500
C2181       C  0.81422581  0.35578553  0.36724840    -0.06200
C2182       C  0.83856288  0.35640228  0.36646956    -0.15800
C2183       C  0.84958113  0.37270751  0.38168176    -0.01400
C2184       C  0.83602908  0.38799988  0.39392258    -0.08900
C2185       C  0.77631911  0.36289521  0.38683145     0.65400
H2186       H  0.80487542  0.34495095  0.35566843     0.10800
C2187       C  0.87507885  0.37575403  0.38700074     0.63800
H2188       H  0.84419707  0.40143163  0.40379750     0.08200
F2189       F  0.74878253  0.45139140  0.43742908    -0.19300
F2190       F  0.75530486  0.44828178  0.40001339    -0.15500
F2191       F  0.77556498  0.47312167  0.42091009    -0.19000
F2192       F  0.84777421  0.38239991  0.44944803    -0.22400
F2193       F  0.82406026  0.35760591  0.43195765    -0.23900
F2194       F  0.81676001  0.36912999  0.46743369    -0.17900
F2195       F  0.88313390  0.39452684  0.37545177    -0.20300
F2196       F  0.88849073  0.35734682  0.38220705    -0.21500
F2197       F  0.87823213  0.37965735  0.41013286    -0.18700
F2198       F  0.76921823  0.34448014  0.37380068    -0.18800
F2199       F  0.76312417  0.38143188  0.38078840    -0.22600
F2200       F  0.77257915  0.35769365  0.40949324    -0.24200
C2201       C  0.93053756  0.31303018  0.41211534    -0.11000
C2202       C  0.91769583  0.29380359  0.40635363     0.11600
C2203       C  0.92345291  0.27250446  0.41586063    -0.02800
C2204       C  0.94162725  0.27136754  0.43181312    -0.05600
C2205       C  0.95383721  0.29093389  0.43882316    -0.16300
C2206       C  0.94829661  0.31231220  0.42836249     0.02600
C2207       C  0.89657960  0.29788729  0.39276306     0.12500
C2208       C  0.90980065  0.25139642  0.40977177     0.63200
H2209       H  0.94589450  0.25516259  0.43947530     0.12600
C2210       C  0.96011410  0.33473070  0.43433417     0.55300
H2211       H  0.92553432  0.32906085  0.40446534     0.08400
C2212       C  0.87794373  0.30941071  0.40243596    -0.05500
C2213       C  0.86249980  0.32045360  0.38792744    -0.06200
C2214       C  0.86504280  0.32109290  0.36380210    -0.15800
C2215       C  0.88019564  0.30411478  0.35443687    -0.01400
C2216       C  0.89678436  0.29426308  0.36915914    -0.08900
C2217       C  0.87417079  0.31195442  0.42796218     0.65400
H2218       H  0.84928024  0.32998813  0.39633335     0.10800
C2219       C  0.88010631  0.29656860  0.32941356     0.63800
H2220       H  0.91068740  0.28435345  0.36227267     0.08200
F2221       F  0.95596694  0.34040197  0.45681970    -0.19300
F2222       F  0.95235823  0.35262398  0.42101235    -0.15500
F2223       F  0.98331994  0.33295080  0.43083142    -0.19000
F2224       F  0.91139836  0.24718368  0.38664376    -0.22400
F2225       F  0.88711303  0.25461701  0.41529401    -0.23900
F2226       F  0.91767252  0.23239492  0.42132192    -0.17900
F2227       F  0.88163112  0.31464922  0.31458497    -0.20300
F2228       F  0.89820710  0.28220411  0.32472038    -0.21500
F2229       F  0.86040646  0.28456996  0.32461823    -0.18700
F2230       F  0.85259862  0.30401450  0.43317766    -0.18800
F2231       F  0.87553557  0.33471999  0.43387031    -0.22600
F2232       F  0.88971423  0.30003458  0.44117022    -0.24200
C2233       C  0.92293479  0.42558698  0.34219922    -0.11000
C2234       C  0.92042560  0.41030200  0.32399234     0.11600
C2235       C  0.93416425  0.41290630  0.30447400    -0.02800
C2236       C  0.95155802  0.42956081  0.30473281    -0.05600
C2237       C  0.95511233  0.44412270  0.32358871    -0.16300
C2238       C  0.93968920  0.44282774  0.34221723     0.02600
C2239       C  0.90389078  0.39118477  0.32650844     0.12500
C2240       C  0.93032306  0.39807467  0.28358179     0.63200
H2241       H  0.96280194  0.43101098  0.29025604     0.12600
C2242       C  0.94021551  0.45979812  0.36182262     0.55300
H2243       H  0.91181366  0.42361712  0.35670503     0.08400
C2244       C  0.91051254  0.36953149  0.33433289    -0.05500
C2245       C  0.89360326  0.35315138  0.33841431    -0.06200
C2246       C  0.86962274  0.35739290  0.33733727    -0.15800
C2247       C  0.86337249  0.37948261  0.32805147    -0.01400
C2248       C  0.88066924  0.39555632  0.32306374    -0.08900
C2249       C  0.93498581  0.36278645  0.34038618     0.65400
H2250       H  0.90028765  0.33767717  0.34509114     0.10800
C2251       C  0.83934422  0.38863882  0.32352834     0.63800
H2252       H  0.87588822  0.41236172  0.31705353     0.08200
F2253       F  0.95923784  0.45608107  0.37545124    -0.19300
F2254       F  0.92110611  0.45789347  0.37543220    -0.15500
F2255       F  0.94067718  0.48176397  0.35335214    -0.19000
F2256       F  0.90802157  0.40050264  0.27598469    -0.22400
F2257       F  0.93420438  0.37550378  0.28891417    -0.23900
F2258       F  0.94469597  0.40398570  0.26594406    -0.17900
F2259       F  0.83517022  0.40650100  0.33831815    -0.20300
F2260       F  0.82203759  0.37309895  0.32569888    -0.21500
F2261       F  0.83810263  0.39677726  0.30140848    -0.18700
F2262       F  0.94108744  0.34399610  0.32757350    -0.18800
F2263       F  0.93612973  0.35699721  0.36323779    -0.22600
F2264       F  0.95089709  0.37968937  0.33667416    -0.24200
C2265       C  0.80839508  0.29750831  0.31905157    -0.11000
C2266       C  0.80896016  0.30484355  0.29640533     0.11600
C2267       C  0.82219591  0.32417167  0.29119686    -0.02800
C2268       C  0.83648893  0.33358253  0.30822770    -0.05600
C2269       C  0.83597855  0.32713071  0.33164623    -0.16300
C2270       C  0.82078960  0.30824419  0.33700659     0.02600
C2271       C  0.79527342  0.29150822  0.27914610     0.12500
C2272       C  0.82115943  0.33652336  0.26843767     0.63200
H2273       H  0.84770792  0.34690344  0.30260109     0.12600
C2274       C  0.81853330  0.29663412  0.36035132     0.55300
H2275       H  0.79821599  0.28250952  0.32242459     0.08400
C2276       C  0.80537290  0.27594630  0.26394097    -0.05500
C2277       C  0.79120924  0.26251803  0.24971011    -0.06200
C2278       C  0.76685191  0.26244648  0.25073290    -0.15800
C2279       C  0.75688516  0.27831334  0.26690528    -0.01400
C2280       C  0.77145648  0.29247414  0.28021177    -0.08900
C2281       C  0.83113423  0.27240387  0.26373880     0.65400
H2282       H  0.79985890  0.25063114  0.23894380     0.10800
C2283       C  0.73151024  0.27948631  0.27308270     0.63800
H2284       H  0.76432475  0.30384007  0.29283845     0.08200
F2285       F  0.83693731  0.28247300  0.36433342    -0.19300
F2286       F  0.79909015  0.28322456  0.36132816    -0.15500
F2287       F  0.81666619  0.31185852  0.37800112    -0.19000
F2288       F  0.81301542  0.35832106  0.27201011    -0.22400
F2289       F  0.80702798  0.32609713  0.25256166    -0.23900
F2290       F  0.84284590  0.33805407  0.25939332    -0.17900
F2291       F  0.72640843  0.26239640  0.28834335    -0.20300
F2292       F  0.71720118  0.27781336  0.25444271    -0.21500
F2293       F  0.72621397  0.29995203  0.28352518    -0.18700
F2294       F  0.83759392  0.25535042  0.24880676    -0.18800
F2295       F  0.83866396  0.26638568  0.28530362    -0.22600
F2296       F  0.84200174  0.29212756  0.25717700    -0.24200
C2297       C  0.91816718  0.38289467  0.67201368    -0.11000
C2298       C  0.90547796  0.39979868  0.68257492     0.11600
C2299       C  0.88164953  0.39709925  0.68429018    -0.02800
C2300       C  0.87132219  0.37772905  0.67426002    -0.05600
C2301       C  0.88359591  0.36138480  0.66107237    -0.16300
C2302       C  0.90845747  0.36301039  0.66262735     0.02600
C2303       C  0.91829984  0.42055865  0.68995226     0.12500
C2304       C  0.86706424  0.41509230  0.69572357     0.63200
H2305       H  0.85289733  0.37654782  0.67456332     0.12600
C2306       C  0.92725167  0.34563267  0.65720988     0.55300
H2307       H  0.93657111  0.38521794  0.67152129     0.08400
C2308       C  0.93347374  0.42046446  0.70893976    -0.05500
C2309       C  0.95018794  0.43774417  0.71086092    -0.06200
C2310       C  0.95233074  0.45487861  0.69429005    -0.15800
C2311       C  0.93556660  0.45610117  0.67648189    -0.01400
C2312       C  0.91903864  0.43875000  0.67461286    -0.08900
C2313       C  0.93355658  0.40105810  0.72595972     0.65400
H2314       H  0.96272048  0.43698240  0.72454050     0.10800
C2315       C  0.93519646  0.47508914  0.65888030     0.63800
H2316       H  0.90751380  0.43836603  0.66005467     0.08200
F2317       F  0.92041813  0.32437003  0.65069090    -0.19300
F2318       F  0.94062353  0.34254169  0.67658487    -0.15500
F2319       F  0.94108711  0.35428778  0.64029933    -0.19000
F2320       F  0.86910999  0.43554103  0.68431404    -0.22400
F2321       F  0.87410799  0.41803284  0.71808584    -0.23900
F2322       F  0.84417301  0.40914406  0.69577033    -0.17900
F2323       F  0.95262331  0.47194279  0.64343340    -0.20300
F2324       F  0.93767702  0.49598922  0.66952991    -0.21500
F2325       F  0.91479526  0.47551054  0.64673737    -0.18700
F2326       F  0.94462140  0.40720313  0.74601221    -0.18800
F2327       F  0.94466990  0.38251105  0.71672806    -0.22600
F2328       F  0.91149136  0.39483496  0.73136554    -0.24200
C2329       C  0.82629496  0.36869292  0.59571770    -0.11000
C2330       C  0.83180003  0.39171258  0.59508005     0.11600
C2331       C  0.84873966  0.40007622  0.61005316    -0.02800
C2332       C  0.85949667  0.38495365  0.62534180    -0.05600
C2333       C  0.85420691  0.36123105  0.62695774    -0.16300
C2334       C  0.83817889  0.35293639  0.60968239     0.02600
C2335       C  0.82217409  0.40590162  0.57614431     0.12500
C2336       C  0.85602051  0.42494911  0.60933071     0.63200
H2337       H  0.87359773  0.39196679  0.63480323     0.12600
C2338       C  0.83492449  0.32803028  0.60287783     0.55300
H2339       H  0.81368168  0.36293309  0.58339055     0.08400
C2340       C  0.83112813  0.40460571  0.55380143    -0.05500
C2341       C  0.82368575  0.42046982  0.53746115    -0.06200
C2342       C  0.80752126  0.43738886  0.54246119    -0.15800
C2343       C  0.79711201  0.43747663  0.56420483    -0.01400
C2344       C  0.80469698  0.42161708  0.58077077    -0.08900
C2345       C  0.84880272  0.38683271  0.54723045     0.65400
H2346       H  0.83096231  0.42016506  0.52054472     0.10800
C2347       C  0.77883052  0.45468615  0.57016327     0.63800
H2348       H  0.79760421  0.42184103  0.59775655     0.08200
F2349       F  0.85382011  0.32070643  0.59105196    -0.19300
F2350       F  0.81624231  0.32487021  0.58854448    -0.15500
F2351       F  0.83124188  0.31436227  0.62132420    -0.19000
F2352       F  0.83760305  0.43871993  0.61433451    -0.22400
F2353       F  0.86393331  0.43029913  0.58784866    -0.23900
F2354       F  0.87324227  0.42981302  0.62494009    -0.17900
F2355       F  0.76014614  0.45176524  0.55585445    -0.20300
F2356       F  0.78729498  0.47651671  0.56768816    -0.21500
F2357       F  0.77150017  0.45222921  0.59240635    -0.18700
F2358       F  0.85667528  0.39004585  0.52527271    -0.18800
F2359       F  0.83919262  0.36537458  0.54822520    -0.22600
F2360       F  0.86740502  0.38783485  0.56189752    -0.24200
C2361       C  0.89828696  0.29700169  0.60801552    -0.11000
C2362       C  0.91230476  0.31092562  0.59497068     0.11600
C2363       C  0.91225580  0.33448729  0.59871846    -0.02800
C2364       C  0.89726484  0.34342068  0.61483220    -0.05600
C2365       C  0.88271694  0.33005165  0.62897432    -0.16300
C2366       C  0.88327041  0.30549732  0.62487604     0.02600
C2367       C  0.92620465  0.30075403  0.57651835     0.12500
C2368       C  0.92850219  0.35026342  0.58611065     0.63200
H2369       H  0.89746916  0.36165106  0.61702673     0.12600
C2370       C  0.86915874  0.28607503  0.63499325     0.55300
H2371       H  0.89871338  0.27888776  0.60437219     0.08400
C2372       C  0.94789169  0.29091732  0.58079055    -0.05500
C2373       C  0.96199175  0.28597693  0.56210934    -0.06200
C2374       C  0.95490635  0.29062291  0.53969226    -0.15800
C2375       C  0.93253605  0.29861081  0.53535032    -0.01400
C2376       C  0.91834728  0.30331048  0.55397927    -0.08900
C2377       C  0.95618454  0.28611282  0.60491369     0.65400
H2378       H  0.97902791  0.27928969  0.56488773     0.10800
C2379       C  0.92399028  0.30250035  0.51115690     0.63800
H2380       H  0.90145923  0.31034982  0.55115902     0.08200
F2381       F  0.88373159  0.27086243  0.64572525    -0.19300
F2382       F  0.85805083  0.27461599  0.61744074    -0.15500
F2383       F  0.85277413  0.29191807  0.65019400    -0.19000
F2384       F  0.92311703  0.35056840  0.56313289    -0.22400
F2385       F  0.95075336  0.34282214  0.58892537    -0.23900
F2386       F  0.92745504  0.37241731  0.59411668    -0.17900
F2387       F  0.92619761  0.28266443  0.49862743    -0.20300
F2388       F  0.93663787  0.31952019  0.50102400    -0.21500
F2389       F  0.90123681  0.30889909  0.51059974    -0.18700
F2390       F  0.97818579  0.27748761  0.60525303    -0.18800
F2391       F  0.94198777  0.27028416  0.61492777    -0.22600
F2392       F  0.95606510  0.30586041  0.61775381    -0.24200
C2393       C  0.78711581  0.30806165  0.72048891    -0.11000
C2394       C  0.80108208  0.29739909  0.70459202     0.11600
C2395       C  0.80087896  0.27354428  0.70315711    -0.02800
C2396       C  0.78773054  0.26120342  0.71872594    -0.05600
C2397       C  0.77208011  0.27119285  0.73430467    -0.16300
C2398       C  0.77158837  0.29608061  0.73458858     0.02600
C2399       C  0.81720049  0.31151214  0.69089243     0.12500
C2400       C  0.81434559  0.26096458  0.68501824     0.63200
H2401       H  0.78981617  0.24299292  0.71867785     0.12600
C2402       C  0.75711538  0.31154308  0.74976826     0.55300
H2403       H  0.78882963  0.32635674  0.72179361     0.08400
C2404       C  0.81015894  0.32537349  0.67263294    -0.05500
C2405       C  0.82683690  0.33740481  0.66033000    -0.06200
C2406       C  0.85082784  0.33363911  0.66286603    -0.15800
C2407       C  0.85742333  0.32113788  0.68337115    -0.01400
C2408       C  0.84025583  0.31093185  0.69679731    -0.08900
C2409       C  0.78510014  0.32713491  0.66579681     0.65400
H2410       H  0.82046779  0.34949854  0.64818679     0.10800
C2411       C  0.88184778  0.31669821  0.69145493     0.63800
H2412       H  0.84463892  0.30134054  0.71195722     0.08200
F2413       F  0.75751361  0.33399341  0.74256936    -0.19300
F2414       F  0.76543712  0.31155516  0.77182606    -0.15500
F2415       F  0.73456536  0.30553646  0.74933267    -0.19000
F2416       F  0.83748506  0.26280104  0.68945306    -0.22400
F2417       F  0.80954173  0.27009053  0.66378615    -0.23900
F2418       F  0.80880570  0.23805726  0.68421444    -0.17900
F2419       F  0.89245412  0.33656215  0.69815731    -0.20300
F2420       F  0.89378028  0.30605334  0.67458284    -0.21500
F2421       F  0.88292174  0.30232982  0.71014374    -0.18700
F2422       F  0.78204948  0.33949457  0.64591913    -0.18800
F2423       F  0.77295611  0.33774989  0.68286658    -0.22600
F2424       F  0.77618059  0.30562471  0.66212446    -0.24200
C2425       C  0.62602800  0.87704628  0.68385722    -0.11000
C2426       C  0.62464280  0.89894944  0.67475196     0.11600
C2427       C  0.63973191  0.90518565  0.65737163    -0.02800
C2428       C  0.65556683  0.88911003  0.64957134    -0.05600
C2429       C  0.65473752  0.86549784  0.65524655    -0.16300
C2430       C  0.64022647  0.85989126  0.67448605     0.02600
C2431       C  0.60619160  0.91467722  0.68241931     0.12500
C2432       C  0.63856139  0.92862025  0.64634384     0.63200
H2433       H  0.66858899  0.89566552  0.63863376     0.12600
C2434       C  0.63899601  0.83650023  0.68589808     0.55300
H2435       H  0.61499689  0.87335982  0.69808702     0.08400
C2436       C  0.58350083  0.91223526  0.67417553    -0.05500
C2437       C  0.56757579  0.92944280  0.67875547    -0.06200
C2438       C  0.57359047  0.94907223  0.69099335    -0.15800
C2439       C  0.59608503  0.95137724  0.69984477    -0.01400
C2440       C  0.61195809  0.93375643  0.69579989    -0.08900
C2441       C  0.57632337  0.89186576  0.65992679     0.65400
H2442       H  0.55026880  0.92802617  0.67219797     0.10800
C2443       C  0.60362906  0.97290583  0.71212902     0.63800
H2444       H  0.62935163  0.93524496  0.70206612     0.08200
F2445       F  0.62154620  0.83530445  0.70163894    -0.19300
F2446       F  0.65902825  0.83211195  0.69765093    -0.15500
F2447       F  0.63480229  0.81944045  0.67030730    -0.19000
F2448       F  0.64524420  0.94512828  0.66183347    -0.22400
F2449       F  0.61651288  0.93308178  0.63894869    -0.23900
F2450       F  0.65254358  0.93017688  0.62756652    -0.17900
F2451       F  0.59151686  0.97536826  0.73210026    -0.20300
F2452       F  0.59971416  0.99160194  0.69831997    -0.21500
F2453       F  0.62667040  0.97245811  0.71764778    -0.18700
F2454       F  0.55382530  0.89338818  0.65261439    -0.18800
F2455       F  0.57847976  0.87233806  0.67284175    -0.22600
F2456       F  0.58995567  0.89027357  0.64084846    -0.24200
C2457       C  0.71490151  0.88033783  0.60336341    -0.11000
C2458       C  0.70037645  0.89309707  0.58944707     0.11600
C2459       C  0.67677271  0.88855691  0.58948983    -0.02800
C2460       C  0.66842323  0.87209086  0.60454956    -0.05600
C2461       C  0.68239985  0.86029973  0.62075010    -0.16300
C2462       C  0.70692426  0.86283935  0.61778460     0.02600
C2463       C  0.71038435  0.90982184  0.57338196     0.12500
C2464       C  0.66020928  0.90192166  0.57445428     0.63200
H2465       H  0.65012512  0.86993739  0.60524639     0.12600
C2466       C  0.72621394  0.84743320  0.62640560     0.55300
H2467       H  0.73311137  0.88338821  0.60193031     0.08400
C2468       C  0.71570560  0.93243550  0.57996268    -0.05500
C2469       C  0.72025611  0.94853820  0.56282069    -0.06200
C2470       C  0.72029596  0.94231661  0.53973121    -0.15800
C2471       C  0.71730029  0.91927596  0.53344399    -0.01400
C2472       C  0.71266387  0.90324221  0.55052522    -0.08900
C2473       C  0.71618395  0.93949010  0.60485284     0.65400
H2474       H  0.72285880  0.96627596  0.56720807     0.10800
C2475       C  0.71771251  0.91204917  0.50862403     0.63800
H2476       H  0.70922748  0.88567851  0.54600275     0.08200
F2477       F  0.73792720  0.85793325  0.64408030    -0.19300
F2478       F  0.74161135  0.84363748  0.60899276    -0.15500
F2479       F  0.71933562  0.82624829  0.63306596    -0.19000
F2480       F  0.66456924  0.89770267  0.55172353    -0.22400
F2481       F  0.66260100  0.92496348  0.57867407    -0.23900
F2482       F  0.63767554  0.89613158  0.57844027    -0.17900
F2483       F  0.71532190  0.88873791  0.50612850    -0.20300
F2484       F  0.73823584  0.91842975  0.49904020    -0.21500
F2485       F  0.69998466  0.92244270  0.49695233    -0.18700
F2486       F  0.72166177  0.96227406  0.60751015    -0.18800
F2487       F  0.73237544  0.92680739  0.61649208    -0.22600
F2488       F  0.69509667  0.93583590  0.61448288    -0.24200
C2489       C  0.63872087  0.80591253  0.59371724    -0.11000
C2490       C  0.61584373  0.81145004  0.59634636     0.11600
C2491       C  0.60948373  0.82563695  0.61435743    -0.02800
C2492       C  0.62663580  0.83619563  0.62753959    -0.05600
C2493       C  0.65058767  0.83181483  0.62531094    -0.16300
C2494       C  0.65648916  0.81557390  0.60726025     0.02600
C2495       C  0.59920119  0.80505327  0.57800887     0.12500
C2496       C  0.58435747  0.82985205  0.61928760     0.63200
H2497       H  0.62050295  0.84883492  0.63905429     0.12600
C2498       C  0.68065510  0.80851405  0.59992567     0.55300
H2499       H  0.64241858  0.79458793  0.57966579     0.08400
C2500       C  0.59664255  0.81873494  0.55829714    -0.05500
C2501       C  0.57862557  0.81400576  0.54300910    -0.06200
C2502       C  0.56336644  0.79589550  0.54649629    -0.15800
C2503       C  0.56669228  0.78141769  0.56561555    -0.01400
C2504       C  0.58470092  0.78629394  0.58109747    -0.08900
C2505       C  0.61274527  0.83847995  0.55361261     0.65400
H2506       H  0.57617512  0.82465287  0.52813009     0.10800
C2507       C  0.55085157  0.76153165  0.57018608     0.63800
H2508       H  0.58725473  0.77588248  0.59611986     0.08200
F2509       F  0.69279233  0.82680762  0.59197184    -0.19300
F2510       F  0.68036202  0.79295831  0.58213868    -0.15500
F2511       F  0.69238456  0.79792165  0.61725005    -0.19000
F2512       F  0.57381517  0.80941673  0.62425661    -0.22400
F2513       F  0.57365092  0.83961319  0.60060562    -0.23900
F2514       F  0.58135463  0.84407842  0.63774344    -0.17900
F2515       F  0.55301733  0.74546880  0.55308774    -0.20300
F2516       F  0.52848100  0.76903699  0.57091451    -0.21500
F2517       F  0.55585100  0.75105245  0.59075981    -0.18700
F2518       F  0.60670952  0.85012184  0.53396424    -0.18800
F2519       F  0.63472379  0.83038466  0.55092869    -0.22600
F2520       F  0.61244567  0.85376147  0.57155639    -0.24200
C2521       C  0.71453254  0.82852642  0.68590824    -0.11000
C2522       C  0.71218479  0.80484467  0.68535771     0.11600
C2523       C  0.69431325  0.79520419  0.67233422    -0.02800
C2524       C  0.68043867  0.80950576  0.65887945    -0.05600
C2525       C  0.68360629  0.83341888  0.65732443    -0.16300
C2526       C  0.70011878  0.84326920  0.67312075     0.02600
C2527       C  0.72577180  0.79075808  0.70178744     0.12500
C2528       C  0.68952716  0.76975382  0.67314949     0.63200
H2529       H  0.66671458  0.80153006  0.64953592     0.12600
C2530       C  0.70176854  0.86864423  0.67908377     0.55300
H2531       H  0.72719253  0.83537767  0.69761503     0.08400
C2532       C  0.74613836  0.77950843  0.69612945    -0.05500
C2533       C  0.75533466  0.76357596  0.71175344    -0.06200
C2534       C  0.74525792  0.75855365  0.73338361    -0.15800
C2535       C  0.72880831  0.77552079  0.74068646    -0.01400
C2536       C  0.71793550  0.78918378  0.72403111    -0.08900
C2537       C  0.75867560  0.78520299  0.67427799     0.65400
H2538       H  0.77098225  0.75534823  0.70689712     0.10800
C2539       C  0.72337962  0.78179381  0.76527055     0.63800
H2540       H  0.70329822  0.79953288  0.72838918     0.08200
F2541       F  0.72121058  0.87353310  0.69181057    -0.19300
F2542       F  0.68333983  0.87495311  0.69217279    -0.15500
F2543       F  0.70264576  0.88219009  0.66003339    -0.19000
F2544       F  0.68437346  0.76339908  0.69520104    -0.22400
F2545       F  0.70847539  0.75776857  0.66605614    -0.23900
F2546       F  0.67132984  0.76359066  0.65921829    -0.17900
F2547       F  0.70990295  0.80111803  0.76669427    -0.20300
F2548       F  0.74317593  0.78687757  0.77703362    -0.21500
F2549       F  0.71146768  0.76487405  0.77582893    -0.18700
F2550       F  0.77738305  0.77120543  0.67100362    -0.18800
F2551       F  0.76631246  0.80745509  0.67544761    -0.22600
F2552       F  0.74439162  0.78294089  0.65552405    -0.24200
C2553       C  0.43850995  0.93406638  0.67978892    -0.11000
C2554       C  0.44281845  0.91304703  0.69021603     0.11600
C2555       C  0.46253690  0.91071884  0.70437365    -0.02800
C2556       C  0.47784125  0.92932018  0.70646770    -0.05600
C2557       C  0.47387563  0.94998047  0.69506123    -0.16300
C2558       C  0.45331275  0.95276624  0.68242790     0.02600
C2559       C  0.42670004  0.89386145  0.68484002     0.12500
C2560       C  0.46753821  0.88874340  0.71706324     0.63200
H2561       H  0.49351927  0.92753591  0.71624708     0.12600
C2562       C  0.44666688  0.97560647  0.67221199     0.55300
H2563       H  0.42349563  0.93562406  0.66910229     0.08400
C2564       C  0.40427301  0.89271984  0.69353538    -0.05500
C2565       C  0.38905246  0.87608020  0.68472534    -0.06200
C2566       C  0.39496371  0.86115561  0.66662044    -0.15800
C2567       C  0.41928934  0.85851682  0.66371124    -0.01400
C2568       C  0.43386424  0.87657519  0.67017454    -0.08900
C2569       C  0.39612773  0.90956183  0.71134960     0.65400
H2570       H  0.37200347  0.87564795  0.69120187     0.10800
C2571       C  0.43199831  0.83645513  0.65894024     0.63800
H2572       H  0.45159656  0.87623363  0.66501804     0.08200
F2573       F  0.42418805  0.97570130  0.66466693    -0.19300
F2574       F  0.46040712  0.98059865  0.65385549    -0.15500
F2575       F  0.44901398  0.99249991  0.68854168    -0.19000
F2576       F  0.47275194  0.87163387  0.70180531    -0.22400
F2577       F  0.44872293  0.88231396  0.72957676    -0.23900
F2578       F  0.48583729  0.89113440  0.73200994    -0.17900
F2579       F  0.44464043  0.83852669  0.63928530    -0.20300
F2580       F  0.41810582  0.81771981  0.65737829    -0.21500
F2581       F  0.44708806  0.83226395  0.67676397    -0.18700
F2582       F  0.37473671  0.90391967  0.71946214    -0.18800
F2583       F  0.39483260  0.93109799  0.70202016    -0.22600
F2584       F  0.41116490  0.90993004  0.72965722    -0.24200
C2585       C  0.39750076  0.80072677  0.61106546    -0.11000
C2586       C  0.41378416  0.81274632  0.59889552     0.11600
C2587       C  0.41480802  0.83655669  0.60093940    -0.02800
C2588       C  0.40083559  0.84725514  0.61699835    -0.05600
C2589       C  0.38525948  0.83549598  0.63136533    -0.16300
C2590       C  0.38215975  0.81131199  0.62624338     0.02600
C2591       C  0.42851199  0.80028982  0.58267416     0.12500
C2592       C  0.43141079  0.85063720  0.58690837     0.63200
H2593       H  0.40305051  0.86535582  0.61926838     0.12600
C2594       C  0.36333670  0.79466151  0.63315030     0.55300
H2595       H  0.39636865  0.78253064  0.60796885     0.08400
C2596       C  0.44981814  0.79050452  0.58906427    -0.05500
C2597       C  0.46549058  0.78521483  0.57185289    -0.06200
C2598       C  0.46024170  0.78907409  0.54887783    -0.15800
C2599       C  0.43807013  0.79633318  0.54243219    -0.01400
C2600       C  0.42231600  0.80137957  0.55957527    -0.08900
C2601       C  0.45748744  0.78634696  0.61347109     0.65400
H2602       H  0.48245696  0.77933856  0.57649559     0.10800
C2603       C  0.43154078  0.79985765  0.51756910     0.63800
H2604       H  0.40569343  0.80822642  0.55509661     0.08200
F2605       F  0.37270657  0.77783795  0.64671410    -0.19300
F2606       F  0.35446505  0.78429830  0.61373725    -0.15500
F2607       F  0.34501498  0.80380826  0.64399461    -0.19000
F2608       F  0.42530347  0.84961928  0.56410723    -0.22400
F2609       F  0.45337636  0.84236084  0.58961887    -0.23900
F2610       F  0.43155219  0.87331006  0.59336575    -0.17900
F2611       F  0.40867141  0.80529928  0.51493147    -0.20300
F2612       F  0.43570498  0.78013483  0.50539533    -0.21500
F2613       F  0.44421659  0.81746093  0.50855782    -0.18700
F2614       F  0.46484262  0.76407355  0.61562021    -0.18800
F2615       F  0.44038866  0.78967454  0.62910210    -0.22600
F2616       F  0.47545765  0.80074943  0.61878386    -0.24200
C2617       C  0.33903123  0.88619548  0.60381873    -0.11000
C2618       C  0.34932901  0.90744516  0.60498233     0.11600
C2619       C  0.36517911  0.91183781  0.62252936    -0.02800
C2620       C  0.37223062  0.89378816  0.63679196    -0.05600
C2621       C  0.36283458  0.87127686  0.63572039    -0.16300
C2622       C  0.34515085  0.86793831  0.61835244     0.02600
C2623       C  0.34472234  0.92388479  0.58604160     0.12500
C2624       C  0.37465707  0.93568551  0.62600920     0.63200
H2625       H  0.38604609  0.89765003  0.64824373     0.12600
C2626       C  0.33296066  0.84558373  0.61289178     0.55300
H2627       H  0.32676890  0.88381298  0.59008756     0.08400
C2628       C  0.35618136  0.92205890  0.56491778    -0.05500
C2629       C  0.35113987  0.93783858  0.54755850    -0.06200
C2630       C  0.33497351  0.95520898  0.55045498    -0.15800
C2631       C  0.32355171  0.95714427  0.57164592    -0.01400
C2632       C  0.32840228  0.94112081  0.58899809    -0.08900
C2633       C  0.37373599  0.90349290  0.56071672     0.65400
H2634       H  0.35986816  0.93673561  0.53138853     0.10800
C2635       C  0.30732566  0.97669569  0.57639577     0.63800
H2636       H  0.31971505  0.94208287  0.60518941     0.08200
F2637       F  0.34763283  0.83076925  0.60231369    -0.19300
F2638       F  0.31463859  0.84846452  0.59804707    -0.15500
F2639       F  0.32391363  0.83611519  0.63210697    -0.19000
F2640       F  0.35694576  0.95044310  0.63079352    -0.22400
F2641       F  0.38562924  0.94296944  0.60656429    -0.23900
F2642       F  0.39004125  0.93671756  0.64397611    -0.17900
F2643       F  0.29920399  0.97612318  0.59848945    -0.20300
F2644       F  0.28875409  0.97564471  0.56171502    -0.21500
F2645       F  0.31857935  0.99716780  0.57342475    -0.18700
F2646       F  0.38379443  0.90561505  0.53955129    -0.18800
F2647       F  0.36336257  0.88238451  0.56160509    -0.22600
F2648       F  0.39083675  0.90455490  0.57710046    -0.24200
C2649       C  0.32265001  0.83272385  0.68922909    -0.11000
C2650       C  0.33041488  0.81158302  0.69711596     0.11600
C2651       C  0.35317189  0.80516065  0.69239013    -0.02800
C2652       C  0.36687517  0.82001843  0.67937916    -0.05600
C2653       C  0.35815328  0.83960277  0.66811176    -0.16300
C2654       C  0.33616145  0.84763229  0.67602891     0.02600
C2655       C  0.31357587  0.79649545  0.70914989     0.12500
C2656       C  0.36237811  0.78181406  0.69895253     0.63200
H2657       H  0.38412743  0.81503638  0.67605476     0.12600
C2658       C  0.32565262  0.87138413  0.67260781     0.55300
H2659       H  0.30540337  0.83763768  0.69366279     0.08400
C2660       C  0.31508181  0.79050335  0.73240932    -0.05500
C2661       C  0.29942782  0.77458370  0.74105196    -0.06200
C2662       C  0.27877652  0.76796584  0.72953076    -0.15800
C2663       C  0.27474593  0.77983516  0.70817439    -0.01400
C2664       C  0.29344623  0.79065437  0.69741559    -0.08900
C2665       C  0.33082654  0.80202346  0.74969296     0.65400
H2666       H  0.30282456  0.76905663  0.75829919     0.10800
C2667       C  0.25140088  0.78464608  0.69730538     0.63800
H2668       H  0.29164889  0.79669389  0.68004322     0.08200
F2669       F  0.31209521  0.87702188  0.69102034    -0.19300
F2670       F  0.31184272  0.87179432  0.65342799    -0.15500
F2671       F  0.34146328  0.88858133  0.67128686    -0.19000
F2672       F  0.38398483  0.77798796  0.69037058    -0.22400
F2673       F  0.34797415  0.76506975  0.69050466    -0.23900
F2674       F  0.36398754  0.77971076  0.72225859    -0.17900
F2675       F  0.25265751  0.80173223  0.68109919    -0.20300
F2676       F  0.23647782  0.79247740  0.71346985    -0.21500
F2677       F  0.24255415  0.76595967  0.68619075    -0.18700
F2678       F  0.31759024  0.81295333  0.76577328    -0.18800
F2679       F  0.34504959  0.81810369  0.74014657    -0.22600
F2680       F  0.34403959  0.78588917  0.76078489    -0.24200
C2681       C  0.38826581  0.80188166  0.39556371    -0.11000
C2682       C  0.41175647  0.80607230  0.39494593     0.11600
C2683       C  0.42088428  0.81634628  0.37536318    -0.02800
C2684       C  0.40571632  0.82574007  0.35912378    -0.05600
C2685       C  0.38178203  0.82754991  0.36302350    -0.16300
C2686       C  0.37303466  0.81109264  0.37906673     0.02600
C2687       C  0.42619419  0.80069384  0.41539572     0.12500
C2688       C  0.44655239  0.81793149  0.37201343     0.63200
H2689       H  0.41306194  0.83302653  0.34403321     0.12600
C2690       C  0.34844705  0.80240890  0.37925130     0.55300
H2691       H  0.38193938  0.79181689  0.40960293     0.08400
C2692       C  0.42894521  0.81669049  0.43328467    -0.05500
C2693       C  0.44443016  0.81200492  0.45098321    -0.06200
C2694       C  0.45737023  0.79190346  0.45174158    -0.15800
C2695       C  0.45304642  0.77481582  0.43495992    -0.01400
C2696       C  0.43756927  0.77968947  0.41687666    -0.08900
C2697       C  0.41667801  0.83938990  0.43314485     0.65400
H2698       H  0.44717470  0.82472789  0.46407665     0.10800
C2699       C  0.46470811  0.75176629  0.43580029     0.63800
H2700       H  0.43459160  0.76736240  0.40342752     0.08200
F2701       F  0.34462151  0.78762621  0.39718389    -0.19300
F2702       F  0.34393042  0.79050377  0.35942496    -0.15500
F2703       F  0.33299590  0.81979826  0.38140708    -0.19000
F2704       F  0.45573712  0.79629031  0.37112805    -0.22400
F2705       F  0.45657900  0.82971618  0.38991479    -0.23900
F2706       F  0.45202911  0.82906232  0.35200385    -0.17900
F2707       F  0.45924706  0.74087292  0.45592818    -0.20300
F2708       F  0.48813161  0.75445763  0.43450848    -0.21500
F2709       F  0.45783030  0.73784166  0.41794068    -0.18700
F2710       F  0.41963859  0.85118521  0.45341820    -0.18800
F2711       F  0.39354673  0.83613718  0.42989702    -0.22600
F2712       F  0.42523474  0.85262445  0.41584759    -0.24200
C2713       C  0.41468067  0.89092143  0.33007363    -0.11000
C2714       C  0.41225090  0.89133111  0.30655385     0.11600
C2715       C  0.39708276  0.87566313  0.29620750    -0.02800
C2716       C  0.38310695  0.86170800  0.31020179    -0.05600
C2717       C  0.38436781  0.86169216  0.33458986    -0.16300
C2718       C  0.40199651  0.87642859  0.34426048     0.02600
C2719       C  0.42669163  0.90836500  0.29404533     0.12500
C2720       C  0.39610122  0.87342752  0.27044128     0.63200
H2721       H  0.37063594  0.85130481  0.30159351     0.12600
C2722       C  0.41008796  0.87829031  0.36893632     0.55300
H2723       H  0.42727409  0.90232441  0.33762671     0.08400
C2724       C  0.42048981  0.93171214  0.29299296    -0.05500
C2725       C  0.43695553  0.94795572  0.28651092    -0.06200
C2726       C  0.45957943  0.94199111  0.28175958    -0.15800
C2727       C  0.46562038  0.91863476  0.28182676    -0.01400
C2728       C  0.44900605  0.90215518  0.28780237    -0.08900
C2729       C  0.39711940  0.93979457  0.30049815     0.65400
H2730       H  0.43265671  0.96575712  0.28670665     0.10800
C2731       C  0.48986993  0.91139836  0.27675793     0.63800
H2732       H  0.45376697  0.88440497  0.28918064     0.08200
F2733       F  0.40786327  0.90053355  0.37607417    -0.19300
F2734       F  0.43300044  0.87257613  0.37013187    -0.15500
F2735       F  0.39896283  0.86482052  0.38407673    -0.19000
F2736       F  0.41735566  0.86711283  0.26252832    -0.22400
F2737       F  0.39004238  0.89395464  0.26067761    -0.23900
F2738       F  0.38044456  0.85714881  0.26338736    -0.17900
F2739       F  0.50464279  0.92083223  0.29270620    -0.20300
F2740       F  0.49580053  0.91881621  0.25524193    -0.21500
F2741       F  0.49235173  0.88798212  0.27741620    -0.18700
F2742       F  0.39488630  0.93643277  0.32368196    -0.18800
F2743       F  0.38022467  0.92790397  0.28898106    -0.22600
F2744       F  0.39387224  0.96272188  0.29616691    -0.24200
C2745       C  0.34401208  0.90420285  0.37511797    -0.11000
C2746       C  0.34461051  0.89998263  0.39852346     0.11600
C2747       C  0.34874927  0.87771245  0.40619683    -0.02800
C2748       C  0.35541053  0.86110281  0.39029644    -0.05600
C2749       C  0.35605299  0.86485952  0.36624567    -0.16300
C2750       C  0.34796237  0.88695324  0.35879335     0.02600
C2751       C  0.34097139  0.91918204  0.41477586     0.12500
C2752       C  0.34633705  0.87157496  0.43127909     0.63200
H2753       H  0.36102680  0.84543643  0.39745040     0.12600
C2754       C  0.34266850  0.89396559  0.33433839     0.55300
H2755       H  0.33975090  0.92126912  0.36949598     0.08400
C2756       C  0.35935714  0.93260347  0.42287379    -0.05500
C2757       C  0.35523948  0.94923754  0.43955044    -0.06200
C2758       C  0.33329312  0.95330028  0.44835041    -0.15800
C2759       C  0.31457009  0.94031839  0.43940707    -0.01400
C2760       C  0.31889698  0.92351920  0.42269591    -0.08900
C2761       C  0.38323919  0.92957976  0.41360261     0.65400
H2762       H  0.36945702  0.95929694  0.44580784     0.10800
C2763       C  0.29016510  0.94363333  0.44736203     0.63800
H2764       H  0.30509463  0.91319923  0.41588604     0.08200
F2765       F  0.34008062  0.87599244  0.31955649    -0.19300
F2766       F  0.32234426  0.90600446  0.33358044    -0.15500
F2767       F  0.35981086  0.90796382  0.32662194    -0.19000
F2768       F  0.32444660  0.87651494  0.43837966    -0.22400
F2769       F  0.36176908  0.88384643  0.44437263    -0.23900
F2770       F  0.35003925  0.84866011  0.43523028    -0.17900
F2771       F  0.28317453  0.96567942  0.44293660    -0.20300
F2772       F  0.28883001  0.93924077  0.47047793    -0.21500
F2773       F  0.27503730  0.92914317  0.43627671    -0.18700
F2774       F  0.39885066  0.94412368  0.42388845    -0.18800
F2775       F  0.38294390  0.93416255  0.39049573    -0.22600
F2776       F  0.39059220  0.90753474  0.41727531    -0.24200
C2777       C  0.31167526  0.81933001  0.31892301    -0.11000
C2778       C  0.32189812  0.80225964  0.30619226     0.11600
C2779       C  0.34586568  0.80044046  0.30667097    -0.02800
C2780       C  0.35862899  0.81554194  0.32061879    -0.05600
C2781       C  0.34877221  0.83257362  0.33491945    -0.16300
C2782       C  0.32368394  0.83346630  0.33454437     0.02600
C2783       C  0.30650252  0.78711071  0.29223979     0.12500
C2784       C  0.35803147  0.78294420  0.29205718     0.63200
H2785       H  0.37704353  0.81414371  0.32033390     0.12600
C2786       C  0.30655207  0.84758898  0.34853777     0.55300
H2787       H  0.29325472  0.82085192  0.31717626     0.08400
C2788       C  0.29305382  0.76974780  0.30195175    -0.05500
C2789       C  0.27648861  0.75859722  0.28826477    -0.06200
C2790       C  0.27204334  0.76430257  0.26506556    -0.15800
C2791       C  0.28905636  0.77899696  0.25468348    -0.01400
C2792       C  0.30447138  0.79117628  0.26892955    -0.08900
C2793       C  0.29607056  0.76306526  0.32682957     0.65400
H2794       H  0.26679466  0.74523004  0.29613323     0.10800
C2795       C  0.29285361  0.78169367  0.22909837     0.63800
H2796       H  0.31552580  0.80411439  0.26194031     0.08200
F2797       F  0.31410306  0.85680042  0.36857241    -0.19300
F2798       F  0.28842081  0.83384445  0.35489072    -0.15500
F2799       F  0.29781017  0.86478463  0.33498239    -0.19000
F2800       F  0.35572185  0.78871737  0.26931817    -0.22400
F2801       F  0.34876075  0.76157347  0.29539290    -0.23900
F2802       F  0.38111663  0.78177228  0.29723465    -0.17900
F2803       F  0.30904059  0.79815265  0.22424592    -0.20300
F2804       F  0.27327514  0.78823014  0.21811277    -0.21500
F2805       F  0.30086720  0.76163512  0.21994800    -0.18700
F2806       F  0.28318612  0.74412245  0.33236768    -0.18800
F2807       F  0.28940252  0.78079295  0.34076555    -0.22600
F2808       F  0.31872237  0.75798607  0.33126735    -0.24200
C2809       C  0.69552348  0.87031915  0.38971698    -0.11000
C2810       C  0.68942981  0.89328981  0.38842295     0.11600
C2811       C  0.67828514  0.90107721  0.36855297    -0.02800
C2812       C  0.66994879  0.88488225  0.35288852    -0.05600
C2813       C  0.67014821  0.86100573  0.35740207    -0.16300
C2814       C  0.68787732  0.85425550  0.37327155     0.02600
C2815       C  0.69581353  0.90899300  0.40745914     0.12500
C2816       C  0.67467120  0.92632878  0.36414399     0.63200
H2817       H  0.66230235  0.89132282  0.33743007     0.12600
C2818       C  0.70054092  0.83164309  0.37231629     0.55300
H2819       H  0.70662940  0.86519801  0.40365199     0.08400
C2820       C  0.68216237  0.91109743  0.42715341    -0.05500
C2821       C  0.68810290  0.92746697  0.44369576    -0.06200
C2822       C  0.70710299  0.94187079  0.44124055    -0.15800
C2823       C  0.72095599  0.93954862  0.42155421    -0.01400
C2824       C  0.71527945  0.92270205  0.40527229    -0.08900
C2825       C  0.66087699  0.89672076  0.43030700     0.65400
H2826       H  0.67751491  0.92946058  0.45859397     0.10800
C2827       C  0.74091887  0.95538444  0.41699427     0.63800
H2828       H  0.72567907  0.92047001  0.39026174     0.08200
F2829       F  0.68614027  0.81349183  0.37479724    -0.19300
F2830       F  0.71699911  0.82992687  0.38934701    -0.15500
F2831       F  0.71170574  0.82985843  0.35181496    -0.19000
F2832       F  0.69555107  0.93709493  0.36219820    -0.22400
F2833       F  0.66273672  0.93598682  0.38194248    -0.23900
F2834       F  0.66242537  0.93021732  0.34421423    -0.17900
F2835       F  0.75817154  0.95154199  0.43277359    -0.20300
F2836       F  0.73380424  0.97779939  0.41837240    -0.21500
F2837       F  0.74988150  0.95205377  0.39547829    -0.18700
F2838       F  0.65075408  0.90058880  0.45120324    -0.18800
F2839       F  0.66630557  0.87387706  0.42907310    -0.22600
F2840       F  0.64514228  0.90194540  0.41345220    -0.24200
C2841       C  0.59709286  0.81667626  0.37116124    -0.11000
C2842       C  0.60276405  0.81634339  0.39428411     0.11600
C2843       C  0.62510100  0.82193921  0.40122094    -0.02800
C2844       C  0.64050292  0.82989536  0.38481234    -0.05600
C2845       C  0.63520549  0.83151919  0.36107473    -0.16300
C2846       C  0.61284642  0.82306884  0.35425987     0.02600
C2847       C  0.58482600  0.81057433  0.41109353     0.12500
C2848       C  0.63247155  0.82007857  0.42613849     0.63200
H2849       H  0.65642861  0.83580347  0.39133153     0.12600
C2850       C  0.60363381  0.82096330  0.32986868     0.55300
H2851       H  0.57985019  0.81182273  0.36627330     0.08400
C2852       C  0.57015762  0.82739055  0.41996617    -0.05500
C2853       C  0.55539072  0.82151119  0.43759937    -0.06200
C2854       C  0.55439265  0.79933000  0.44659042    -0.15800
C2855       C  0.56792060  0.78198811  0.43642453    -0.01400
C2856       C  0.58303343  0.78807757  0.41881573    -0.08900
C2857       C  0.57002549  0.85149783  0.41083034     0.65400
H2858       H  0.54444145  0.83456135  0.44455186     0.10800
C2859       C  0.56677866  0.75732177  0.44397857     0.63800
H2860       H  0.59403835  0.77542022  0.41119843     0.08200
F2861       F  0.58966082  0.83927126  0.32491682    -0.19300
F2862       F  0.59061830  0.80135600  0.32763731    -0.15500
F2863       F  0.62059962  0.81943605  0.31383752    -0.19000
F2864       F  0.62948108  0.79799437  0.43362558    -0.22400
F2865       F  0.61955527  0.83452929  0.43943652    -0.23900
F2866       F  0.65525077  0.82564064  0.42937714    -0.17900
F2867       F  0.54488064  0.74902853  0.44059608    -0.20300
F2868       F  0.57277288  0.75566160  0.46678711    -0.21500
F2869       F  0.58150272  0.74362019  0.43174582    -0.18700
F2870       F  0.55442428  0.86524807  0.42189103    -0.18800
F2871       F  0.56413592  0.85105114  0.38796004    -0.22600
F2872       F  0.59139584  0.86111770  0.41369836    -0.24200
C2873       C  0.60469193  0.89024451  0.32777491    -0.11000
C2874       C  0.60634272  0.89195906  0.30421207     0.11600
C2875       C  0.62253211  0.87794634  0.29307752    -0.02800
C2876       C  0.63551797  0.86217435  0.30612471    -0.05600
C2877       C  0.63522194  0.86128175  0.33044362    -0.16300
C2878       C  0.61964015  0.87716995  0.34121733     0.02600
C2879       C  0.59218881  0.91068485  0.29370198     0.12500
C2880       C  0.62704421  0.87869348  0.26767137     0.63200
H2881       H  0.64610062  0.85065929  0.29661323     0.12600
C2882       C  0.61752280  0.88336333  0.36637418     0.55300
H2883       H  0.59231073  0.90108920  0.33619903     0.08400
C2884       C  0.57230807  0.90721529  0.27995480    -0.05500
C2885       C  0.55762305  0.92588600  0.27557997    -0.06200
C2886       C  0.56057501  0.94712112  0.28640411    -0.15800
C2887       C  0.58062223  0.95066757  0.29982833    -0.01400
C2888       C  0.59635716  0.93271684  0.30227572    -0.08900
C2889       C  0.56500849  0.88434049  0.27024438     0.65400
H2890       H  0.54252440  0.92324119  0.26506549     0.10800
C2891       C  0.58655080  0.97248703  0.31258567     0.63800
H2892       H  0.61144720  0.93544587  0.31283017     0.08200
F2893       F  0.62069204  0.90659596  0.36890287    -0.19300
F2894       F  0.63264410  0.87314346  0.38092186    -0.15500
F2895       F  0.59571239  0.87821300  0.37329687    -0.19000
F2896       F  0.61514756  0.89575053  0.25660875    -0.22400
F2897       F  0.62100959  0.85802035  0.25800833    -0.23900
F2898       F  0.65010172  0.88230786  0.26418016    -0.17900
F2899       F  0.58798235  0.96785413  0.33567441    -0.20300
F2900       F  0.57096669  0.98979375  0.30956930    -0.21500
F2901       F  0.60756798  0.98030573  0.30536143    -0.18700
F2902       F  0.56672212  0.88493531  0.24674353    -0.18800
F2903       F  0.54250341  0.88015428  0.27586086    -0.22600
F2904       F  0.57786093  0.86637444  0.27833346    -0.24200
C2905       C  0.68253564  0.79212649  0.31302089    -0.11000
C2906       C  0.69894528  0.80372436  0.30051191     0.11600
C2907       C  0.69898141  0.82767671  0.30119119    -0.02800
C2908       C  0.68273153  0.83903722  0.31475264    -0.05600
C2909       C  0.66659711  0.82781660  0.32896547    -0.16300
C2910       C  0.66740949  0.80282905  0.32851879     0.02600
C2911       C  0.71569506  0.78988743  0.28684828     0.12500
C2912       C  0.71648548  0.84128897  0.28797554     0.63200
H2913       H  0.68292260  0.85743348  0.31473405     0.12600
C2914       C  0.65358553  0.78553529  0.34273943     0.55300
H2915       H  0.68217078  0.77385824  0.31063320     0.08400
C2916       C  0.73250841  0.77610750  0.29717716    -0.05500
C2917       C  0.74596013  0.76181058  0.28342207    -0.06200
C2918       C  0.74569024  0.76193830  0.25902029    -0.15800
C2919       C  0.72724610  0.77544359  0.24885304    -0.01400
C2920       C  0.71307455  0.78882330  0.26321682    -0.08900
C2921       C  0.73657051  0.77656778  0.32286911     0.65400
H2922       H  0.75681743  0.75029963  0.29260266     0.10800
C2923       C  0.72024187  0.77564878  0.22354937     0.63800
H2924       H  0.69890218  0.79839875  0.25620613     0.08200
F2925       F  0.66319456  0.76398593  0.34207457    -0.19300
F2926       F  0.63181818  0.78313887  0.33416617    -0.15500
F2927       F  0.65276821  0.79059777  0.36551927    -0.19000
F2928       F  0.71307906  0.83820992  0.26483156    -0.22400
F2929       F  0.73826770  0.83416219  0.29382885    -0.23900
F2930       F  0.71501982  0.86436630  0.29252005    -0.17900
F2931       F  0.71200710  0.75473876  0.21679695    -0.20300
F2932       F  0.73795666  0.78209353  0.20997206    -0.21500
F2933       F  0.70286322  0.79101275  0.21897812    -0.18700
F2934       F  0.75589149  0.76446306  0.32921332    -0.18800
F2935       F  0.71817909  0.76715587  0.33403488    -0.22600
F2936       F  0.73959074  0.79877147  0.33009275    -0.24200
C2937       C  0.42768139  0.17007126  0.36924301    -0.11000
C2938       C  0.42204741  0.17183978  0.39222740     0.11600
C2939       C  0.39913414  0.16927031  0.39866606    -0.02800
C2940       C  0.38291649  0.16296377  0.38200446    -0.05600
C2941       C  0.38811674  0.15918706  0.35860675    -0.16300
C2942       C  0.41130129  0.16490140  0.35214728     0.02600
C2943       C  0.44039179  0.17638750  0.40941532     0.12500
C2944       C  0.39197487  0.17232992  0.42340193     0.63200
H2945       H  0.36604047  0.16053608  0.38806928     0.12600
C2946       C  0.42046082  0.16647077  0.32790970     0.55300
H2947       H  0.44532281  0.17301369  0.36454477     0.08400
C2948       C  0.45304477  0.15853550  0.41948307    -0.05500
C2949       C  0.46784325  0.16347604  0.43766265    -0.06200
C2950       C  0.47145313  0.18579231  0.44561246    -0.15800
C2951       C  0.46015054  0.20406083  0.43418348    -0.01400
C2952       C  0.44447141  0.19885852  0.41644944    -0.08900
C2953       C  0.45181784  0.13446907  0.41038678     0.65400
H2954       H  0.47721379  0.14964115  0.44548449     0.10800
C2955       C  0.46440591  0.22883589  0.44029750     0.63800
H2956       H  0.43499724  0.21228169  0.40799354     0.08200
F2957       F  0.43451574  0.14814605  0.32364117    -0.19300
F2958       F  0.43340054  0.18608914  0.32569238    -0.15500
F2959       F  0.40354584  0.16755703  0.31145644    -0.19000
F2960       F  0.39746738  0.19400918  0.43080480    -0.22400
F2961       F  0.40313526  0.15662447  0.43703844    -0.23900
F2962       F  0.36870357  0.16943935  0.42622844    -0.17900
F2963       F  0.48711061  0.23416366  0.43672656    -0.20300
F2964       F  0.45896187  0.23267322  0.46286923    -0.21500
F2965       F  0.45134100  0.24345228  0.42706096    -0.18700
F2966       F  0.46473277  0.11940860  0.42325846    -0.18800
F2967       F  0.46033342  0.13438428  0.38850690    -0.22600
F2968       F  0.42949433  0.12684854  0.41036967    -0.24200
C2969       C  0.33134591  0.12186428  0.39212637    -0.11000
C2970       C  0.33864300  0.09921483  0.39252371     0.11600
C2971       C  0.34880034  0.09020113  0.37277817    -0.02800
C2972       C  0.35460737  0.10519372  0.35505047    -0.05600
C2973       C  0.35359014  0.12931880  0.35754254    -0.16300
C2974       C  0.33670812  0.13658268  0.37380021     0.02600
C2975       C  0.33405764  0.08485685  0.41299368     0.12500
C2976       C  0.35430280  0.06499377  0.37075634     0.63200
H2977       H  0.36118786  0.09771998  0.33968346     0.12600
C2978       C  0.32198459  0.15778141  0.37103557     0.55300
H2979       H  0.32083278  0.12767056  0.40606720     0.08400
C2980       C  0.34890262  0.08485327  0.43218007    -0.05500
C2981       C  0.34505423  0.06911436  0.44978512    -0.06200
C2982       C  0.32710782  0.05316786  0.44882782    -0.15800
C2983       C  0.31151349  0.05400461  0.43009962    -0.01400
C2984       C  0.31512925  0.07018367  0.41268389    -0.08900
C2985       C  0.36922512  0.10086014  0.43371527     0.65400
H2986       H  0.35663777  0.06868615  0.46428029     0.10800
C2987       C  0.29175547  0.03741101  0.42783517     0.63800
H2988       H  0.30363742  0.07098353  0.39813243     0.08200
F2989       F  0.33470632  0.17721910  0.36911943    -0.19300
F2990       F  0.30756275  0.16093962  0.38936276    -0.15500
F2991       F  0.30842153  0.15529108  0.35186708    -0.19000
F2992       F  0.33441859  0.05236251  0.37146960    -0.22400
F2993       F  0.36849971  0.05847934  0.38855585    -0.23900
F2994       F  0.36520619  0.05989229  0.35052820    -0.17900
F2995       F  0.27644896  0.04103687  0.44527781    -0.20300
F2996       F  0.29980434  0.01530347  0.42881552    -0.21500
F2997       F  0.28010454  0.03998591  0.40734057    -0.18700
F2998       F  0.38085118  0.09884129  0.45428597    -0.18800
F2999       F  0.36192970  0.12311067  0.43172868    -0.22600
F3000       F  0.38430651  0.09602869  0.41640889    -0.24200
C3001       C  0.41578373  0.09900244  0.32322776    -0.11000
C3002       C  0.41209907  0.09748699  0.29985899     0.11600
C3003       C  0.39474302  0.11098307  0.28994872    -0.02800
C3004       C  0.38323900  0.12703848  0.30370297    -0.05600
C3005       C  0.38594344  0.12844448  0.32793010    -0.16300
C3006       C  0.40252559  0.11272391  0.33763835     0.02600
C3007       C  0.42579767  0.07974329  0.28785119     0.12500
C3008       C  0.38690992  0.10871542  0.26531315     0.63200
H3009       H  0.37210145  0.13848972  0.29466735     0.12600
C3010       C  0.40770169  0.10789671  0.36265734     0.55300
H3011       H  0.42875732  0.08799306  0.33066491     0.08400
C3012       C  0.44782910  0.08432045  0.27911711    -0.05500
C3013       C  0.46284167  0.06595056  0.27496233    -0.06200
C3014       C  0.45634559  0.04334942  0.27922383    -0.15800
C3015       C  0.43348319  0.03877559  0.28545347    -0.01400
C3016       C  0.41861282  0.05707521  0.28986940    -0.08900
C3017       C  0.45573697  0.10855848  0.27531023     0.65400
H3018       H  0.48024747  0.06921557  0.26977788     0.10800
C3019       C  0.42496925  0.01459438  0.28752309     0.63800
H3020       H  0.40164143  0.05385057  0.29633118     0.08200
F3021       F  0.43022922  0.11326490  0.36682235    -0.19300
F3022       F  0.40489846  0.08488653  0.36675998    -0.15500
F3023       F  0.39451361  0.11915671  0.37813405    -0.19000
F3024       F  0.36406177  0.10264624  0.26489196    -0.22400
F3025       F  0.39890264  0.09247265  0.25328891    -0.23900
F3026       F  0.38933615  0.12938920  0.25437026    -0.17900
F3027       F  0.43637320  0.00376494  0.30515098    -0.20300
F3028       F  0.42888868  0.00323728  0.26724873    -0.21500
F3029       F  0.40177509  0.01371940  0.29185646    -0.18700
F3030       F  0.47668459  0.10932659  0.26457896    -0.18800
F3031       F  0.45777571  0.11965657  0.29600242    -0.22600
F3032       F  0.44005996  0.11993025  0.26173694    -0.24200
C3033       C  0.33867475  0.19655951  0.31020796    -0.11000
C3034       C  0.32221777  0.18427488  0.29808617     0.11600
C3035       C  0.32184973  0.16046474  0.30000901    -0.02800
C3036       C  0.33771590  0.14976506  0.31467070    -0.05600
C3037       C  0.35480442  0.16155529  0.32756543    -0.16300
C3038       C  0.35458104  0.18644041  0.32558244     0.02600
C3039       C  0.30468384  0.19716978  0.28454334     0.12500
C3040       C  0.30466379  0.14638083  0.28646524     0.63200
H3041       H  0.33701860  0.13142226  0.31597841     0.12600
C3042       C  0.36939670  0.20388223  0.33881927     0.55300
H3043       H  0.33832376  0.21478539  0.30763155     0.08400
C3044       C  0.28532653  0.20668709  0.29496436    -0.05500
C3045       C  0.26938935  0.21855059  0.28147020    -0.06200
C3046       C  0.27174263  0.22208110  0.25754711    -0.15800
C3047       C  0.29180241  0.21206330  0.24715282    -0.01400
C3048       C  0.30781306  0.20037211  0.26112646    -0.08900
C3049       C  0.28170976  0.20486864  0.32058518     0.65400
H3050       H  0.25528501  0.22584265  0.29038424     0.10800
C3051       C  0.29818159  0.21280503  0.22191342     0.63800
H3052       H  0.32310830  0.19335633  0.25355642     0.08200
F3053       F  0.36251899  0.22611484  0.33493430    -0.19300
F3054       F  0.39170796  0.20302445  0.33212228    -0.15500
F3055       F  0.36816785  0.20115872  0.36201845    -0.19000
F3056       F  0.30776630  0.14991864  0.26340027    -0.22400
F3057       F  0.28267361  0.15264034  0.29210795    -0.23900
F3058       F  0.30700633  0.12332809  0.29065686    -0.17900
F3059       F  0.31669089  0.22709200  0.21908855    -0.20300
F3060       F  0.28082838  0.21979548  0.20757563    -0.21500
F3061       F  0.30474318  0.19136078  0.21474625    -0.18700
F3062       F  0.26117969  0.21432008  0.32730450    -0.18800
F3063       F  0.29906521  0.21613595  0.33208779    -0.22600
F3064       F  0.28161297  0.18232003  0.32707135    -0.24200
C3065       C  0.44943298  0.07996872  0.70210561    -0.11000
C3066       C  0.43714451  0.07996771  0.68138706     0.11600
C3067       C  0.44273705  0.06358382  0.66451221    -0.02800
C3068       C  0.46035735  0.04808359  0.66896974    -0.05600
C3069       C  0.47301934  0.04807949  0.68945257    -0.16300
C3070       C  0.46726538  0.06426772  0.70658432     0.02600
C3071       C  0.42013898  0.09852170  0.67732542     0.12500
C3072       C  0.43134044  0.06144626  0.64125001     0.63200
H3073       H  0.46427821  0.03568677  0.65585759     0.12600
C3074       C  0.48005552  0.06560314  0.72917775     0.55300
H3075       H  0.44504695  0.09269955  0.71470032     0.08400
C3076       C  0.39642220  0.09511029  0.67876457    -0.05500
C3077       C  0.38162969  0.11251094  0.67117152    -0.06200
C3078       C  0.38914909  0.13426220  0.66358777    -0.15800
C3079       C  0.41344778  0.13853706  0.66693187    -0.01400
C3080       C  0.42819297  0.12023993  0.67221987    -0.08900
C3081       C  0.38678896  0.07314564  0.68844609     0.65400
H3082       H  0.36400741  0.10864298  0.67158417     0.10800
C3083       C  0.42566595  0.16153664  0.66612931     0.63800
H3084       H  0.44650822  0.12306339  0.67273213     0.08200
F3085       F  0.47250787  0.08346346  0.74257285    -0.19300
F3086       F  0.50306419  0.06887860  0.72529913    -0.15500
F3087       F  0.47690727  0.04570588  0.74130244    -0.19000
F3088       F  0.44731158  0.06551964  0.62450571    -0.22400
F3089       F  0.41346052  0.07621322  0.63807668    -0.23900
F3090       F  0.42296089  0.03957028  0.63853940    -0.17900
F3091       F  0.43906477  0.16404134  0.68556595    -0.20300
F3092       F  0.41114818  0.17997255  0.66552885    -0.21500
F3093       F  0.43998559  0.16223448  0.64754981    -0.18700
F3094       F  0.36313856  0.07294981  0.68820960    -0.18800
F3095       F  0.39413495  0.07076361  0.71079270    -0.22600
F3096       F  0.39412716  0.05462325  0.67598986    -0.24200
C3097       C  0.42746881  0.19122605  0.55767149    -0.11000
C3098       C  0.43361607  0.19405149  0.58074112     0.11600
C3099       C  0.45634043  0.20070369  0.58632719    -0.02800
C3100       C  0.47250296  0.20243709  0.56874586    -0.05600
C3101       C  0.46667069  0.19789970  0.54595820    -0.16300
C3102       C  0.44365449  0.19317150  0.54012009     0.02600
C3103       C  0.41766985  0.18459160  0.59803330     0.12500
C3104       C  0.46473936  0.20553406  0.61040381     0.63200
H3105       H  0.49012989  0.20640547  0.57301034     0.12600
C3106       C  0.43645710  0.18982016  0.51542264     0.55300
H3107       H  0.41011945  0.18608615  0.55363649     0.08400
C3108       C  0.40103310  0.19708673  0.61009577    -0.05500
C3109       C  0.38749553  0.18577436  0.62649088    -0.06200
C3110       C  0.38868541  0.16186894  0.63038970    -0.15800
C3111       C  0.40429168  0.14937576  0.61579800    -0.01400
C3112       C  0.41894573  0.16125428  0.60125433    -0.08900
C3113       C  0.39665550  0.22221829  0.60628517     0.65400
H3114       H  0.37603811  0.19619387  0.63629371     0.10800
C3115       C  0.40700262  0.12366031  0.61335176     0.63800
H3116       H  0.43134384  0.15183351  0.59130388     0.08200
F3117       F  0.41309106  0.18679567  0.51317760    -0.19300
F3118       F  0.44717569  0.17089274  0.50646829    -0.15500
F3119       F  0.44252261  0.20878791  0.50293143    -0.19000
F3120       F  0.48186691  0.19030249  0.61607896    -0.22400
F3121       F  0.44778664  0.20400511  0.62652843    -0.23900
F3122       F  0.47355385  0.22736709  0.61131892    -0.17900
F3123       F  0.40460699  0.11784062  0.59055781    -0.20300
F3124       F  0.39150335  0.11090093  0.62505397    -0.21500
F3125       F  0.42870931  0.11746790  0.62047886    -0.18700
F3126       F  0.39986437  0.23384606  0.62658070    -0.18800
F3127       F  0.37429268  0.22510453  0.59904138    -0.22600
F3128       F  0.41078359  0.23174082  0.59013675    -0.24200
C3129       C  0.33207566  0.10064542  0.62529414    -0.11000
C3130       C  0.33783125  0.10125409  0.60219614     0.11600
C3131       C  0.34722208  0.12141846  0.59336684    -0.02800
C3132       C  0.35432008  0.13833000  0.60874847    -0.05600
C3133       C  0.35477300  0.13499300  0.63287696    -0.16300
C3134       C  0.33856293  0.11831407  0.64052547     0.02600
C3135       C  0.33255235  0.08151079  0.58711995     0.12500
C3136       C  0.34988398  0.12515469  0.56784128     0.63200
H3137       H  0.36043936  0.15402196  0.60153192     0.12600
C3138       C  0.32274837  0.12184236  0.66073827     0.55300
H3139       H  0.32145550  0.08672950  0.63104737     0.08400
C3140       C  0.34781730  0.06296334  0.58507598    -0.05500
C3141       C  0.34460353  0.04754903  0.56706709    -0.06200
C3142       C  0.32662051  0.04983861  0.55125560    -0.15800
C3143       C  0.30995353  0.06703517  0.55469530    -0.01400
C3144       C  0.31326831  0.08261475  0.57276885    -0.08900
C3145       C  0.36826234  0.06009269  0.60087042     0.65400
H3146       H  0.35670376  0.03381954  0.56475937     0.10800
C3147       C  0.28932745  0.06959641  0.53904698     0.63800
H3148       H  0.30137552  0.09648308  0.57525447     0.08200
F3149       F  0.31363960  0.10134113  0.66791991    -0.19300
F3150       F  0.30495668  0.13576238  0.65387582    -0.15500
F3151       F  0.33323230  0.13155717  0.67936848    -0.19000
F3152       F  0.32856494  0.12711868  0.55771474    -0.22400
F3153       F  0.36140458  0.10709111  0.55812511    -0.23900
F3154       F  0.36204753  0.14478487  0.56312168    -0.17900
F3155       F  0.27552677  0.05058480  0.54077806    -0.20300
F3156       F  0.29635277  0.07208372  0.51673217    -0.21500
F3157       F  0.27631576  0.08842815  0.54466366    -0.18700
F3158       F  0.37928110  0.03953830  0.59740900    -0.18800
F3159       F  0.36146179  0.06081694  0.62336668    -0.22600
F3160       F  0.38368719  0.07729639  0.59686636    -0.24200
C3161       C  0.34036398  0.18655106  0.69650802    -0.11000
C3162       C  0.32141641  0.19415609  0.68408989     0.11600
C3163       C  0.32085175  0.18973068  0.66037890    -0.02800
C3164       C  0.33915473  0.17776895  0.65034845    -0.05600
C3165       C  0.35709047  0.16702569  0.66292631    -0.16300
C3166       C  0.35722794  0.17170303  0.68743550     0.02600
C3167       C  0.30220177  0.20560185  0.69696882     0.12500
C3168       C  0.30092441  0.19711789  0.64534315     0.63200
H3169       H  0.33883680  0.17581847  0.63203064     0.12600
C3170       C  0.37275798  0.16074150  0.70555519     0.55300
H3171       H  0.34077370  0.19140641  0.71430278     0.08400
C3172       C  0.28911408  0.19411232  0.71358989    -0.05500
C3173       C  0.27321025  0.20658449  0.72669769    -0.06200
C3174       C  0.26722519  0.22977732  0.72243400    -0.15800
C3175       C  0.27609169  0.23819484  0.70085031    -0.01400
C3176       C  0.29606640  0.22802685  0.69184928    -0.08900
C3177       C  0.29157732  0.16865172  0.71750367     0.65400
H3178       H  0.26601591  0.19780619  0.74104448     0.10800
C3179       C  0.26352531  0.25223031  0.68257668     0.63800
H3180       H  0.30511832  0.23660701  0.67833759     0.08200
F3181       F  0.36881003  0.16906103  0.72728671    -0.19300
F3182       F  0.39529246  0.16505829  0.70151427    -0.15500
F3183       F  0.36893468  0.13767915  0.70676871    -0.19000
F3184       F  0.30277968  0.22005471  0.64060940    -0.22400
F3185       F  0.28037097  0.19290355  0.65599681    -0.23900
F3186       F  0.30056893  0.18543602  0.62481053    -0.17900
F3187       F  0.26578501  0.24182040  0.66149312    -0.20300
F3188       F  0.27314033  0.27356590  0.68080038    -0.21500
F3189       F  0.24038941  0.25398713  0.68550669    -0.18700
F3190       F  0.27409027  0.16016755  0.73077847    -0.18800
F3191       F  0.31201140  0.16394788  0.72844884    -0.22600
F3192       F  0.29080263  0.15731188  0.69682702    -0.24200
C3193       C  0.68714636  0.06484500  0.41469967    -0.11000
C3194       C  0.70580998  0.06886738  0.40060559     0.11600
C3195       C  0.72725714  0.05921172  0.40607425    -0.02800
C3196       C  0.72878700  0.04429080  0.42486030    -0.05600
C3197       C  0.70983547  0.03959551  0.43883365    -0.16300
C3198       C  0.68863368  0.05069736  0.43390822     0.02600
C3199       C  0.70210334  0.08536004  0.38180923     0.12500
C3200       C  0.74842977  0.06507251  0.39249547     0.63200
H3201       H  0.74499116  0.03631293  0.42882990     0.12600
C3202       C  0.66748331  0.04828311  0.44865401     0.55300
H3203       H  0.67119703  0.07323383  0.41043820     0.08400
C3204       C  0.69016722  0.07956116  0.36171243    -0.05500
C3205       C  0.68124201  0.09715204  0.34809581    -0.06200
C3206       C  0.68182395  0.12048826  0.35477334    -0.15800
C3207       C  0.69803185  0.12597303  0.37288910    -0.01400
C3208       C  0.70680809  0.10810874  0.38638837    -0.08900
C3209       C  0.68564452  0.05482946  0.35539087     0.65400
H3210       H  0.67212767  0.09206706  0.33293370     0.10800
C3211       C  0.70639185  0.14971871  0.37957318     0.63800
H3212       H  0.71627790  0.11180353  0.40191497     0.08200
F3213       F  0.65001832  0.06264552  0.44173306    -0.19300
F3214       F  0.67278464  0.05376598  0.47104425    -0.15500
F3215       F  0.65921433  0.02625979  0.44732864    -0.19000
F3216       F  0.75329040  0.08798232  0.39485098    -0.22400
F3217       F  0.74491021  0.06023555  0.36967507    -0.23900
F3218       F  0.76733598  0.05291493  0.39988089    -0.17900
F3219       F  0.68963639  0.16166686  0.39065815    -0.20300
F3220       F  0.71396147  0.16143538  0.36084741    -0.21500
F3221       F  0.72492085  0.14882921  0.39443634    -0.18700
F3222       F  0.67476082  0.05275202  0.33442325    -0.18800
F3223       F  0.67191740  0.04478814  0.37157158    -0.22600
F3224       F  0.70602066  0.04307088  0.35430950    -0.24200
C3225       C  0.57931049  0.16598736  0.41259109    -0.11000
C3226       C  0.60216385  0.17173160  0.41715836     0.11600
C3227       C  0.60771577  0.18351540  0.43764846    -0.02800
C3228       C  0.59030918  0.18759478  0.45367430    -0.05600
C3229       C  0.56765809  0.18085233  0.44952293    -0.16300
C3230       C  0.56184133  0.17063942  0.42832263     0.02600
C3231       C  0.61989175  0.16412486  0.40059198     0.12500
C3232       C  0.63176621  0.19211533  0.44240024     0.63200
H3233       H  0.59425859  0.19600401  0.46968493     0.12600
C3234       C  0.53716279  0.16540154  0.42207994     0.55300
H3235       H  0.57532351  0.15752032  0.39661864     0.08400
C3236       C  0.62929896  0.14207739  0.40146243    -0.05500
C3237       C  0.64549547  0.13579708  0.38502413    -0.06200
C3238       C  0.65164086  0.14981383  0.36627349    -0.15800
C3239       C  0.64676203  0.17376473  0.37007074    -0.01400
C3240       C  0.62873929  0.17963008  0.38491550    -0.08900
C3241       C  0.62178887  0.12492731  0.41930572     0.65400
H3242       H  0.65328174  0.11928351  0.38681599     0.10800
C3243       C  0.66232530  0.19411103  0.36524713     0.63800
H3244       H  0.62325539  0.19721850  0.38607051     0.08200
F3245       F  0.52847253  0.14921898  0.43671010    -0.19300
F3246       F  0.53502349  0.15717618  0.40001954    -0.15500
F3247       F  0.52429731  0.18506697  0.42367075    -0.19000
F3248       F  0.63708865  0.20893945  0.42689419    -0.22400
F3249       F  0.64739631  0.17461572  0.44050988    -0.23900
F3250       F  0.63387758  0.20125613  0.46410110    -0.17900
F3251       F  0.65095752  0.21020883  0.35239211    -0.20300
F3252       F  0.68247113  0.18883528  0.35482226    -0.21500
F3253       F  0.66822953  0.20431211  0.38579758    -0.18700
F3254       F  0.63402994  0.10482494  0.41802699    -0.18800
F3255       F  0.59894506  0.11979014  0.41607443    -0.22600
F3256       F  0.62490678  0.13379157  0.44096046    -0.24200
C3257       C  0.62144374  0.10805749  0.29769615    -0.11000
C3258       C  0.60764641  0.09421608  0.31122154     0.11600
C3259       C  0.61361028  0.09193677  0.33441698    -0.02800
C3260       C  0.62994851  0.10691940  0.34407333    -0.05600
C3261       C  0.64375087  0.12216517  0.33114990    -0.16300
C3262       C  0.64125966  0.11915247  0.30656853     0.02600
C3263       C  0.58921559  0.07976017  0.30039406     0.12500
C3264       C  0.60442512  0.07221934  0.34855033     0.63200
H3265       H  0.63335085  0.10432303  0.36126803     0.12600
C3266       C  0.66081569  0.12109930  0.28947350     0.55300
H3267       H  0.61811413  0.10797293  0.27951199     0.08400
C3268       C  0.56574606  0.08390199  0.30427408    -0.05500
C3269       C  0.54965303  0.06680900  0.29851141    -0.06200
C3270       C  0.55587977  0.04709969  0.28637615    -0.15800
C3271       C  0.57874107  0.04516672  0.27869146    -0.01400
C3272       C  0.59528228  0.06097123  0.28679252    -0.08900
C3273       C  0.55775242  0.10687429  0.31306205     0.65400
H3274       H  0.53191370  0.06888017  0.30316629     0.10800
C3275       C  0.58551695  0.02692313  0.26169366     0.63800
H3276       H  0.61313389  0.05871304  0.28269260     0.08200
F3277       F  0.66313242  0.14295373  0.28141805    -0.19300
F3278       F  0.65708661  0.10735444  0.27056436    -0.15500
F3279       F  0.68105961  0.11363627  0.29899257    -0.19000
F3280       F  0.60985556  0.05189839  0.33796731    -0.22400
F3281       F  0.58100877  0.07355754  0.35063386    -0.23900
F3282       F  0.61378473  0.07174646  0.37031497    -0.17900
F3283       F  0.57360310  0.03025055  0.24150444    -0.20300
F3284       F  0.58049593  0.00554916  0.26991247    -0.21500
F3285       F  0.60862830  0.02763994  0.25696432    -0.18700
F3286       F  0.53420890  0.10778631  0.31478222    -0.18800
F3287       F  0.56455349  0.12359975  0.29800435    -0.22600
F3288       F  0.56703361  0.11163850  0.33427011    -0.24200
C3289       C  0.67362076  0.18969034  0.30366306    -0.11000
C3290       C  0.69620006  0.18595146  0.29642260     0.11600
C3291       C  0.70670266  0.16524767  0.30327645    -0.02800
C3292       C  0.69609903  0.15165705  0.31980223    -0.05600
C3293       C  0.67329199  0.15488937  0.32711414    -0.16300
C3294       C  0.66106945  0.17339497  0.31633538     0.02600
C3295       C  0.70868202  0.20339037  0.28189150     0.12500
C3296       C  0.72810105  0.15587543  0.29205430     0.63200
H3297       H  0.70572910  0.13718656  0.32577529     0.12600
C3298       C  0.63505345  0.17591087  0.31486957     0.55300
H3299       H  0.66526056  0.20528898  0.29893472     0.08400
C3300       C  0.69958046  0.21383278  0.26194762    -0.05500
C3301       C  0.71334892  0.22928969  0.24965776    -0.06200
C3302       C  0.73743075  0.23120908  0.25276206    -0.15800
C3303       C  0.74641891  0.22039456  0.27321157    -0.01400
C3304       C  0.73121224  0.20897054  0.28800570    -0.08900
C3305       C  0.67599115  0.20822639  0.25232930     0.65400
H3306       H  0.70483898  0.23900506  0.23668292     0.10800
C3307       C  0.77134149  0.22087285  0.28124116     0.63800
H3308       H  0.73725936  0.20341266  0.30455498     0.08200
F3309       F  0.62794020  0.16985029  0.29315578    -0.19300
F3310       F  0.62861508  0.19827965  0.31824499    -0.15500
F3311       F  0.62319169  0.16278198  0.33013595    -0.19000
F3312       F  0.74750196  0.16464143  0.30234656    -0.22400
F3313       F  0.72802013  0.16094675  0.26909316    -0.23900
F3314       F  0.72911034  0.13239291  0.29379425    -0.17900
F3315       F  0.77569288  0.24065001  0.29326474    -0.20300
F3316       F  0.78633068  0.21888340  0.26344826    -0.21500
F3317       F  0.77612545  0.20284141  0.29569103    -0.18700
F3318       F  0.67431549  0.21375545  0.22942783    -0.18800
F3319       F  0.65946852  0.22049409  0.26364070    -0.22600
F3320       F  0.67158826  0.18517594  0.25413092    -0.24200
C3321       C  0.68920593  0.09495910  0.58654572    -0.11000
C3322       C  0.71266226  0.09272886  0.58874100     0.11600
C3323       C  0.72465122  0.10679715  0.60415823    -0.02800
C3324       C  0.71230578  0.12293587  0.61708885    -0.05600
C3325       C  0.68828528  0.12602885  0.61483403    -0.16300
C3326       C  0.67646181  0.11050640  0.59938258     0.02600
C3327       C  0.72306734  0.07444124  0.57467557     0.12500
C3328       C  0.75029949  0.10446871  0.60695677     0.63200
H3329       H  0.72175813  0.13323041  0.62908189     0.12600
C3330       C  0.65067623  0.10675300  0.59768504     0.55300
H3331       H  0.68075953  0.08320475  0.57497112     0.08400
C3332       C  0.71880522  0.05118274  0.57970011    -0.05500
C3333       C  0.71991878  0.03505280  0.56206187    -0.06200
C3334       C  0.72529733  0.04129545  0.53973187    -0.15800
C3335       C  0.73073935  0.06421395  0.53481650    -0.01400
C3336       C  0.72982878  0.08044721  0.55254752    -0.08900
C3337       C  0.71086604  0.04284722  0.60277892     0.65400
H3338       H  0.71556609  0.01745872  0.56557036     0.10800
C3339       C  0.73552839  0.07166998  0.51057554     0.63800
H3340       H  0.73219951  0.09832473  0.54876240     0.08200
F3341       F  0.64455310  0.09446269  0.61630479    -0.19300
F3342       F  0.64427282  0.09413213  0.57868329    -0.15500
F3343       F  0.63800493  0.12632413  0.59667101    -0.19000
F3344       F  0.76075282  0.10852322  0.58630987    -0.22400
F3345       F  0.75561378  0.08267735  0.61410230    -0.23900
F3346       F  0.75905322  0.11969993  0.62281929    -0.17900
F3347       F  0.71697935  0.06649443  0.49671669    -0.20300
F3348       F  0.75460231  0.06047590  0.50255555    -0.21500
F3349       F  0.73947873  0.09485396  0.50918788    -0.18700
F3350       F  0.72333278  0.02384594  0.60909987    -0.18800
F3351       F  0.68801648  0.03696625  0.60130611    -0.22600
F3352       F  0.71361902  0.05896108  0.61972644    -0.24200
C3353       C  0.64898369  0.09493284  0.66614397    -0.11000
C3354       C  0.62557995  0.09792688  0.66264371     0.11600
C3355       C  0.61799817  0.11824250  0.65240733    -0.02800
C3356       C  0.63421769  0.13326183  0.64298587    -0.05600
C3357       C  0.65839584  0.12979488  0.64424867    -0.16300
C3358       C  0.66550664  0.11073720  0.65844051     0.02600
C3359       C  0.60938893  0.07954026  0.66989086     0.12500
C3360       C  0.59263399  0.12371539  0.65084746     0.63200
H3361       H  0.62707890  0.14661486  0.63294228     0.12600
C3362       C  0.68983425  0.10444003  0.66550179     0.55300
H3363       H  0.65446952  0.07967044  0.67501329     0.08400
C3364       C  0.60374313  0.06079848  0.65559921    -0.05500
C3365       C  0.58723919  0.04518990  0.66282778    -0.06200
C3366       C  0.57608430  0.04717399  0.68382445    -0.15800
C3367       C  0.58305493  0.06482210  0.69901369    -0.01400
C3368       C  0.59954269  0.08081106  0.69163134    -0.08900
C3369       C  0.61448136  0.05724756  0.63246407     0.65400
H3370       H  0.58261631  0.03120833  0.65167059     0.10800
C3371       C  0.57320374  0.06701928  0.72270378     0.63800
H3372       H  0.60470794  0.09471585  0.70267545     0.08200
F3373       F  0.69697617  0.08618314  0.65255822    -0.19300
F3374       F  0.69019767  0.09801810  0.68822061    -0.15500
F3375       F  0.70547923  0.12164300  0.66366567    -0.19000
F3376       F  0.58357511  0.12454139  0.67251965    -0.22400
F3377       F  0.58135328  0.10716762  0.63831989    -0.23900
F3378       F  0.58853235  0.14451987  0.64057370    -0.17900
F3379       F  0.57868046  0.04788897  0.73531727    -0.20300
F3380       F  0.54975580  0.06927146  0.72126444    -0.21500
F3381       F  0.58176111  0.08582698  0.73420233    -0.18700
F3382       F  0.60773197  0.03699767  0.62232506    -0.18800
F3383       F  0.63798012  0.05653475  0.63480744    -0.22600
F3384       F  0.60785467  0.07466206  0.61809301    -0.24200
C3385       C  0.64227346  0.17477909  0.57881027    -0.11000
C3386       C  0.62670197  0.18709951  0.59163917     0.11600
C3387       C  0.63117411  0.19081453  0.61495369    -0.02800
C3388       C  0.64957007  0.17924125  0.62520030    -0.05600
C3389       C  0.66265139  0.16258300  0.61343306    -0.16300
C3390       C  0.66120072  0.16368651  0.58862542     0.02600
C3391       C  0.60489173  0.19293891  0.58013731     0.12500
C3392       C  0.61609150  0.20523417  0.63007851     0.63200
H3393       H  0.65139273  0.18090087  0.64349850     0.12600
C3394       C  0.67745899  0.15470292  0.57038704     0.55300
H3395       H  0.63922356  0.17341691  0.56055569     0.08400
C3396       C  0.60355265  0.20926185  0.56248183    -0.05500
C3397       C  0.58462106  0.20880475  0.54762828    -0.06200
C3398       C  0.56699671  0.19275605  0.54999344    -0.15800
C3399       C  0.56739258  0.17776107  0.56900396    -0.01400
C3400       C  0.58650368  0.17812640  0.58371588    -0.08900
C3401       C  0.62176879  0.22708533  0.55824533     0.65400
H3402       H  0.58408706  0.22064288  0.53346734     0.10800
C3403       C  0.54811213  0.16115121  0.57375485     0.63800
H3404       H  0.58797268  0.16571212  0.59729172     0.08200
F3405       F  0.68188175  0.17197546  0.55498863    -0.19300
F3406       F  0.66713245  0.13706484  0.55849733    -0.15500
F3407       F  0.69832362  0.14762985  0.57813694    -0.19000
F3408       F  0.60398649  0.19117353  0.64448561    -0.22400
F3409       F  0.60080756  0.21841858  0.61778923    -0.23900
F3410       F  0.62955310  0.21971175  0.64310867    -0.17900
F3411       F  0.55008120  0.15172535  0.59531593    -0.20300
F3412       F  0.54847353  0.14357177  0.55805856    -0.21500
F3413       F  0.52730735  0.17225241  0.57249716    -0.18700
F3414       F  0.61169217  0.24836860  0.55766893    -0.18800
F3415       F  0.63187173  0.22292040  0.53742965    -0.22600
F3416       F  0.63858840  0.22748580  0.57494516    -0.24200
C3417       C  0.72017479  0.22847864  0.69450997    -0.11000
C3418       C  0.72671169  0.20559586  0.69453123     0.11600
C3419       C  0.74606649  0.19925608  0.70734928    -0.02800
C3420       C  0.75563229  0.21518188  0.72266239    -0.05600
C3421       C  0.74671318  0.23760112  0.72619262    -0.16300
C3422       C  0.73107784  0.24508661  0.70847390     0.02600
C3423       C  0.71468670  0.18948299  0.67866225     0.12500
C3424       C  0.75701466  0.17595717  0.70435575     0.63200
H3425       H  0.77102824  0.21001381  0.73136345     0.12600
C3426       C  0.72682674  0.26988119  0.70203906     0.55300
H3427       H  0.70679683  0.23331135  0.68260866     0.08400
C3428       C  0.69554974  0.17681555  0.68526425    -0.05500
C3429       C  0.68468231  0.16260020  0.66910453    -0.06200
C3430       C  0.69130645  0.16069315  0.64568347    -0.15800
C3431       C  0.70942865  0.17632255  0.63887271    -0.01400
C3432       C  0.72130827  0.18891343  0.65593534    -0.08900
C3433       C  0.68595828  0.17916990  0.70919067     0.65400
H3434       H  0.66993030  0.15366702  0.67513712     0.10800
C3435       C  0.71625467  0.18224129  0.61438022     0.63800
H3436       H  0.73567721  0.19962283  0.65162039     0.08200
F3437       F  0.71791035  0.28193717  0.71981376    -0.19300
F3438       F  0.71145726  0.27194543  0.68406206    -0.15500
F3439       F  0.74686889  0.27985243  0.69500885    -0.19000
F3440       F  0.76293440  0.17284417  0.68179692    -0.22400
F3441       F  0.74191754  0.15903690  0.71053260    -0.23900
F3442       F  0.77662642  0.17354605  0.71751640    -0.17900
F3443       F  0.73191066  0.19991521  0.61355944    -0.20300
F3444       F  0.69771028  0.18969508  0.60198180    -0.21500
F3445       F  0.72659805  0.16422306  0.60375216    -0.18700
F3446       F  0.66708626  0.16540288  0.71251218    -0.18800
F3447       F  0.67937766  0.20145760  0.71282464    -0.22600
F3448       F  0.70230655  0.17331875  0.72526438    -0.24200
C3449       C  0.40434286  0.65443602  0.89869259    -0.11000
C3450       C  0.40409932  0.67775334  0.90204371     0.11600
C3451       C  0.39019141  0.69129373  0.88783445    -0.02800
C3452       C  0.37591545  0.68050961  0.87138694    -0.05600
C3453       C  0.37542426  0.65645997  0.86769600    -0.16300
C3454       C  0.39064185  0.64331201  0.88237870     0.02600
C3455       C  0.41967771  0.68651589  0.92037826     0.12500
C3456       C  0.39095397  0.71704685  0.88964104     0.63200
H3457       H  0.36520747  0.69137391  0.86116836     0.12600
C3458       C  0.39563319  0.61785258  0.88211369     0.55300
H3459       H  0.41589031  0.64452282  0.90936137     0.08400
C3460       C  0.41415355  0.68388297  0.94376653    -0.05500
C3461       C  0.43168675  0.68578044  0.96033076    -0.06200
C3462       C  0.45447728  0.68948395  0.95420005    -0.15800
C3463       C  0.45991406  0.69296144  0.93101618    -0.01400
C3464       C  0.44230571  0.69169912  0.91443407    -0.08900
C3465       C  0.39011878  0.67760058  0.95110443     0.65400
H3466       H  0.42798052  0.68291780  0.97816297     0.10800
C3467       C  0.48447865  0.69665617  0.92388870     0.63800
H3468       H  0.44638970  0.69294775  0.89650403     0.08200
F3469       F  0.39274172  0.60926948  0.90378156    -0.19300
F3470       F  0.41823350  0.61451471  0.87626311    -0.15500
F3471       F  0.38256806  0.60521420  0.86751694    -0.19000
F3472       F  0.41258510  0.72463995  0.88422290    -0.22400
F3473       F  0.38594283  0.72385831  0.91158807    -0.23900
F3474       F  0.37546294  0.72733264  0.87496159    -0.17900
F3475       F  0.49746396  0.67786247  0.92976405    -0.20300
F3476       F  0.49325105  0.71564297  0.93485596    -0.21500
F3477       F  0.48627914  0.69995747  0.90060859    -0.18700
F3478       F  0.38801540  0.67774815  0.97459942    -0.18800
F3479       F  0.38460655  0.65603265  0.94337463    -0.22600
F3480       F  0.37458075  0.69297351  0.94225183    -0.24200
C3481       C  0.37793923  0.60142507  0.80149452    -0.11000
C3482       C  0.40119076  0.59938772  0.80683682     0.11600
C3483       C  0.41151199  0.61630762  0.82046365    -0.02800
C3484       C  0.39748713  0.63218769  0.83154727    -0.05600
C3485       C  0.37315837  0.63165287  0.83035344    -0.16300
C3486       C  0.36388777  0.61831675  0.81159049     0.02600
C3487       C  0.41432365  0.57900355  0.79897127     0.12500
C3488       C  0.43731323  0.61725000  0.82376254     0.63200
H3489       H  0.40603390  0.64469919  0.84189961     0.12600
C3490       C  0.34007305  0.62163707  0.80107515     0.55300
H3491       H  0.37088706  0.58938685  0.78933537     0.08400
C3492       C  0.41442681  0.55860698  0.81180167    -0.05500
C3493       C  0.42998177  0.54133148  0.80615584    -0.06200
C3494       C  0.44553337  0.54364234  0.78821123    -0.15800
C3495       C  0.44437008  0.56338866  0.77429049    -0.01400
C3496       C  0.42853127  0.58070949  0.77985039    -0.08900
C3497       C  0.39883979  0.55548296  0.83207371     0.65400
H3498       H  0.43076713  0.52605651  0.81644214     0.10800
C3499       C  0.46047585  0.56673335  0.75446678     0.63800
H3500       H  0.42785284  0.59624009  0.76996393     0.08200
F3501       F  0.33587111  0.60640379  0.78347820    -0.19300
F3502       F  0.33838732  0.64313701  0.79179609    -0.15500
F3503       F  0.32293485  0.61856844  0.81667191    -0.19000
F3504       F  0.44765588  0.62059299  0.80294248    -0.22400
F3505       F  0.44510646  0.59710021  0.83315009    -0.23900
F3506       F  0.44401081  0.63485623  0.83806349    -0.17900
F3507       F  0.45706526  0.58747400  0.74380271    -0.20300
F3508       F  0.45692159  0.54976981  0.73845160    -0.21500
F3509       F  0.48287144  0.56596203  0.76216708    -0.18700
F3510       F  0.40122313  0.53420267  0.84189830    -0.18800
F3511       F  0.37634208  0.55789416  0.82520376    -0.22600
F3512       F  0.40398933  0.57157003  0.84849241    -0.24200
C3513       C  0.32085725  0.62108588  0.89897483    -0.11000
C3514       C  0.32004238  0.59798371  0.89381645     0.11600
C3515       C  0.32779250  0.59058266  0.87248247    -0.02800
C3516       C  0.33924843  0.60617865  0.85839165    -0.05600
C3517       C  0.34234763  0.62966952  0.86386484    -0.16300
C3518       C  0.33058965  0.63734249  0.88424088     0.02600
C3519       C  0.31378480  0.58174060  0.91226395     0.12500
C3520       C  0.32454649  0.56599220  0.86497671     0.63200
H3521       H  0.34723301  0.59894707  0.84379093     0.12600
C3522       C  0.32879443  0.66170323  0.89321634     0.55300
H3523       H  0.31432531  0.62636493  0.91540869     0.08400
C3524       C  0.33029883  0.57469503  0.92847540    -0.05500
C3525       C  0.32397312  0.55931442  0.94544371    -0.06200
C3526       C  0.30188226  0.54993663  0.94662520    -0.15800
C3527       C  0.28499147  0.55753963  0.93075089    -0.01400
C3528       C  0.29130590  0.57354972  0.91387368    -0.08900
C3529       C  0.35484381  0.58286995  0.92745748     0.65400
H3530       H  0.33673374  0.55416475  0.95784835     0.10800
C3531       C  0.26063319  0.54877939  0.93126676     0.63800
H3532       H  0.27884215  0.57959844  0.90155554     0.08200
F3533       F  0.34580702  0.66544502  0.90928040    -0.19300
F3534       F  0.30791658  0.66487903  0.90370919    -0.15500
F3535       F  0.32988679  0.67809892  0.87667952    -0.19000
F3536       F  0.30156324  0.56059359  0.86524204    -0.22400
F3537       F  0.33616675  0.55150856  0.87955081    -0.23900
F3538       F  0.33234175  0.56226460  0.84308242    -0.17900
F3539       F  0.24741859  0.55783420  0.91381235    -0.20300
F3540       F  0.25068148  0.55475193  0.95172082    -0.21500
F3541       F  0.26048863  0.52535732  0.92887170    -0.18700
F3542       F  0.36837734  0.57353391  0.94451252    -0.18800
F3543       F  0.35557360  0.60626060  0.92986124    -0.22600
F3544       F  0.36403063  0.57662270  0.90676503    -0.24200
C3545       C  0.33863548  0.69736155  0.80992761    -0.11000
C3546       C  0.31482013  0.69559807  0.81080677     0.11600
C3547       C  0.30520581  0.67725750  0.82280878    -0.02800
C3548       C  0.31974656  0.66246782  0.83505996    -0.05600
C3549       C  0.34413233  0.66378572  0.83477339    -0.16300
C3550       C  0.35357160  0.68121515  0.82008504     0.02600
C3551       C  0.30101088  0.71051158  0.79510441     0.12500
C3552       C  0.27966536  0.67253495  0.82171071     0.63200
H3553       H  0.31149062  0.64913754  0.84441272     0.12600
C3554       C  0.37843987  0.68215090  0.81211177     0.55300
H3555       H  0.34534805  0.71080933  0.79932056     0.08400
C3556       C  0.28718857  0.72896248  0.80190222    -0.05500
C3557       C  0.27393936  0.74053378  0.78524284    -0.06200
C3558       C  0.27648459  0.73726435  0.76124142    -0.15800
C3559       C  0.29354611  0.72034709  0.75491756    -0.01400
C3560       C  0.30329942  0.70635203  0.77191573    -0.08900
C3561       C  0.28639300  0.73791036  0.82618209     0.65400
H3562       H  0.26153527  0.75219539  0.79184113     0.10800
C3563       C  0.30211384  0.71460397  0.73101973     0.63800
H3564       H  0.31395448  0.69206425  0.76709189     0.08200
F3565       F  0.38304116  0.70181673  0.80000085    -0.19300
F3566       F  0.38266372  0.66417093  0.79757423    -0.15500
F3567       F  0.39383729  0.68178529  0.82991108    -0.19000
F3568       F  0.27296821  0.66927966  0.79927149    -0.22400
F3569       F  0.26773582  0.69063531  0.83069875    -0.23900
F3570       F  0.27370407  0.65324654  0.83381712    -0.17900
F3571       F  0.32426159  0.70627407  0.73195328    -0.20300
F3572       F  0.30329783  0.73304322  0.71680213    -0.21500
F3573       F  0.28855926  0.69773981  0.72159500    -0.18700
F3574       F  0.26423400  0.73695399  0.83408389    -0.18800
F3575       F  0.29349645  0.76036273  0.82630450    -0.22600
F3576       F  0.30034325  0.72600201  0.84108502    -0.24200
C3577       C  0.68294478  0.61270727  0.88084794    -0.11000
C3578       C  0.66804739  0.59858802  0.89280557     0.11600
C3579       C  0.64439736  0.60151286  0.88996367    -0.02800
C3580       C  0.63653380  0.61797470  0.87458229    -0.05600
C3581       C  0.65093685  0.63180253  0.86075179    -0.16300
C3582       C  0.67528042  0.62998922  0.86562226     0.02600
C3583       C  0.67738112  0.58162514  0.90936017     0.12500
C3584       C  0.62730744  0.58713095  0.90307380     0.63200
H3585       H  0.61832558  0.61974896  0.87269270     0.12600
C3586       C  0.69414507  0.64570616  0.85695858     0.55300
H3587       H  0.70102424  0.61017557  0.88397642     0.08400
C3588       C  0.68421189  0.55948565  0.90260732    -0.05500
C3589       C  0.68903739  0.54315343  0.91959371    -0.06200
C3590       C  0.68707906  0.54837287  0.94283791    -0.15800
C3591       C  0.68138542  0.57079637  0.94957462    -0.01400
C3592       C  0.67706094  0.58721993  0.93262730    -0.08900
C3593       C  0.68597855  0.55310590  0.87760661     0.65400
H3594       H  0.69358065  0.52592313  0.91486398     0.10800
C3595       C  0.67939020  0.57712501  0.97458574     0.63800
H3596       H  0.67211905  0.60432636  0.93740044     0.08200
F3597       F  0.70097036  0.63901292  0.83553724    -0.19300
F3598       F  0.71338921  0.64478965  0.87086736    -0.15500
F3599       F  0.68759916  0.66817943  0.85697561    -0.19000
F3600       F  0.62882350  0.59212249  0.92607578    -0.22400
F3601       F  0.63177645  0.56425863  0.89983111    -0.23900
F3602       F  0.60502030  0.59110637  0.89605812    -0.17900
F3603       F  0.67476195  0.60004386  0.97751513    -0.20300
F3604       F  0.69966260  0.57225406  0.98583980    -0.21500
F3605       F  0.66188688  0.56485162  0.98437373    -0.18700
F3606       F  0.69192528  0.53048493  0.87473326    -0.18800
F3607       F  0.70246925  0.56638405  0.86740294    -0.22600
F3608       F  0.66528626  0.55661941  0.86667391    -0.24200
C3609       C  0.58840260  0.67375086  0.88438377    -0.11000
C3610       C  0.60202809  0.68222366  0.90188954     0.11600
C3611       C  0.62577516  0.68231359  0.89935523    -0.02800
C3612       C  0.63509342  0.67261914  0.87953722    -0.05600
C3613       C  0.62194823  0.66229571  0.86161627    -0.16300
C3614       C  0.59726168  0.66235703  0.86517960     0.02600
C3615       C  0.59033595  0.68703981  0.92380274     0.12500
C3616       C  0.64113771  0.69291114  0.91746429     0.63200
H3617       H  0.65341116  0.67185822  0.87859172     0.12600
C3618       C  0.57909761  0.64939695  0.85162951     0.55300
H3619       H  0.57016214  0.67474159  0.88711391     0.08400
C3620       C  0.57451080  0.70510371  0.92625964    -0.05500
C3621       C  0.55803143  0.70377906  0.94356466    -0.06200
C3622       C  0.55692485  0.68504809  0.95839777    -0.15800
C3623       C  0.57434795  0.66826519  0.95745949    -0.01400
C3624       C  0.59052985  0.66943315  0.93992484    -0.08900
C3625       C  0.57384457  0.72570890  0.91073374     0.65400
H3626       H  0.54526991  0.71707663  0.94481707     0.10800
C3627       C  0.57577647  0.64881126  0.97443780     0.63800
H3628       H  0.60244710  0.65552975  0.93762541     0.08200
F3629       F  0.57493679  0.65981154  0.83105831    -0.19300
F3630       F  0.55816041  0.64857581  0.86246467    -0.15500
F3631       F  0.58541989  0.62713573  0.84914081    -0.19000
F3632       F  0.63968988  0.68076460  0.93755260    -0.22400
F3633       F  0.63435844  0.71511119  0.92138738    -0.23900
F3634       F  0.66378956  0.69325004  0.91090326    -0.17900
F3635       F  0.55905382  0.63287766  0.96951151    -0.20300
F3636       F  0.57293789  0.65692253  0.99639723    -0.21500
F3637       F  0.59678330  0.63802654  0.97366499    -0.18700
F3638       F  0.57598262  0.74522458  0.92381201    -0.18800
F3639       F  0.55312561  0.72628830  0.89923028    -0.22600
F3640       F  0.59118545  0.72578909  0.89488943    -0.24200
C3641       C  0.59260468  0.62466634  0.79710702    -0.11000
C3642       C  0.59148384  0.60176617  0.80357158     0.11600
C3643       C  0.60856231  0.59321961  0.81826422    -0.02800
C3644       C  0.62484900  0.60836862  0.82732704    -0.05600
C3645       C  0.62256725  0.63253911  0.82613507    -0.16300
C3646       C  0.60812679  0.64029331  0.80753814     0.02600
C3647       C  0.57282015  0.58672727  0.79452628     0.12500
C3648       C  0.60942257  0.56819623  0.82490619     0.63200
H3649       H  0.63928854  0.60076128  0.83585179     0.12600
C3650       C  0.60882336  0.66420155  0.79747054     0.55300
H3651       H  0.58079012  0.63025095  0.78396362     0.08400
C3652       C  0.55077080  0.58634839  0.80441053    -0.05500
C3653       C  0.53597320  0.56836279  0.79904206    -0.06200
C3654       C  0.54230114  0.55073721  0.78438686    -0.15800
C3655       C  0.56311003  0.55237149  0.77233863    -0.01400
C3656       C  0.57807711  0.57059165  0.77759164    -0.08900
C3657       C  0.54338866  0.60322456  0.82239922     0.65400
H3658       H  0.51964803  0.56709930  0.80751410     0.10800
C3659       C  0.56991396  0.53454714  0.75495385     0.63800
H3660       H  0.59461870  0.57161492  0.76954727     0.08200
F3661       F  0.60866699  0.68050935  0.81421318    -0.19300
F3662       F  0.59012642  0.66844031  0.78347206    -0.15500
F3663       F  0.62806704  0.66674215  0.78433999    -0.19000
F3664       F  0.61544845  0.55516345  0.80627722    -0.22400
F3665       F  0.58833436  0.56116111  0.83267803    -0.23900
F3666       F  0.62517066  0.56421164  0.84217608    -0.17900
F3667       F  0.55400903  0.53404541  0.73737816    -0.20300
F3668       F  0.57093237  0.51336923  0.76516963    -0.21500
F3669       F  0.59105756  0.53915524  0.74562224    -0.18700
F3670       F  0.52025856  0.60164069  0.82690337    -0.18800
F3671       F  0.54757166  0.62517502  0.81523242    -0.22600
F3672       F  0.55510898  0.59873210  0.84238711    -0.24200
C3673       C  0.72175406  0.68797886  0.78025052    -0.11000
C3674       C  0.69911359  0.69514861  0.77843107     0.11600
C3675       C  0.69387187  0.71318318  0.76332235    -0.02800
C3676       C  0.71190353  0.72491283  0.75255907    -0.05600
C3677       C  0.73535161  0.72004646  0.75672624    -0.16300
C3678       C  0.73989119  0.69896533  0.76888439     0.02600
C3679       C  0.68174726  0.68377019  0.79336169     0.12500
C3680       C  0.66935414  0.72053196  0.75885862     0.63200
H3681       H  0.70727243  0.73856756  0.74131599     0.12600
C3682       C  0.76301590  0.68687415  0.77024349     0.55300
H3683       H  0.72504927  0.67348254  0.79113656     0.08400
C3684       C  0.67770036  0.66010095  0.79330099    -0.05500
C3685       C  0.66473150  0.65047774  0.81095340    -0.06200
C3686       C  0.65295583  0.66333290  0.82779120    -0.15800
C3687       C  0.65593928  0.68805619  0.82646572    -0.01400
C3688       C  0.67161418  0.69683264  0.81036767    -0.08900
C3689       C  0.68672862  0.64407082  0.77514523     0.65400
H3690       H  0.66340304  0.63209268  0.81116234     0.10800
C3691       C  0.64576906  0.70667172  0.84184039     0.63800
H3692       H  0.67681544  0.71448963  0.81127935     0.08200
F3693       F  0.76854445  0.67829124  0.74908771    -0.19300
F3694       F  0.76277698  0.66847628  0.78497878    -0.15500
F3695       F  0.77993677  0.70115798  0.77818604    -0.19000
F3696       F  0.66134345  0.73278310  0.77725000    -0.22400
F3697       F  0.65559978  0.70167865  0.75535854    -0.23900
F3698       F  0.66756036  0.73419125  0.73971065    -0.17900
F3699       F  0.65828969  0.70830618  0.86183782    -0.20300
F3700       F  0.62296121  0.70369986  0.84635727    -0.21500
F3701       F  0.64690862  0.72788064  0.83158378    -0.18700
F3702       F  0.66954857  0.62931652  0.76825268    -0.18800
F3703       F  0.70457936  0.63148252  0.78416909    -0.22600
F3704       F  0.69419228  0.65535779  0.75593574    -0.24200
C3705       C  0.64921800  0.39798958  0.88488073    -0.11000
C3706       C  0.67279530  0.39868314  0.88754000     0.11600
C3707       C  0.68628774  0.38331919  0.87500198    -0.02800
C3708       C  0.67539067  0.36747423  0.86028157    -0.05600
C3709       C  0.65127594  0.36683034  0.85659984    -0.16300
C3710       C  0.63809902  0.38376036  0.86898496     0.02600
C3711       C  0.68209401  0.41579316  0.90412442     0.12500
C3712       C  0.71214466  0.38368801  0.87718565     0.63200
H3713       H  0.68613623  0.35516785  0.85213217     0.12600
C3714       C  0.61233589  0.38822195  0.86764838     0.55300
H3715       H  0.63923251  0.40956145  0.89523454     0.08400
C3716       C  0.68203981  0.43945067  0.89918496    -0.05500
C3717       C  0.68568744  0.45514416  0.91709917    -0.06200
C3718       C  0.68953334  0.44794947  0.93959264    -0.15800
C3719       C  0.69090558  0.42436648  0.94433241    -0.01400
C3720       C  0.68700838  0.40862132  0.92648055    -0.08900
C3721       C  0.67624264  0.44832218  0.87553448     0.65400
H3722       H  0.68458845  0.47325341  0.91380032     0.10800
C3723       C  0.69575801  0.41600852  0.96834253     0.63800
H3724       H  0.68662163  0.39055412  0.93007004     0.08200
F3725       F  0.60826555  0.41144676  0.86828754    -0.19300
F3726       F  0.60196565  0.37844490  0.88632016    -0.15500
F3727       F  0.60166666  0.38064973  0.84822150    -0.19000
F3728       F  0.71858663  0.37879136  0.89936491    -0.22400
F3729       F  0.72029659  0.40499205  0.87147245    -0.23900
F3730       F  0.72234144  0.36791110  0.86296823    -0.17900
F3731       F  0.67884875  0.42350779  0.98284612    -0.20300
F3732       F  0.71661782  0.42438178  0.97578803    -0.21500
F3733       F  0.69652724  0.39248372  0.96940561    -0.18700
F3734       F  0.68337255  0.47063205  0.87291052    -0.18800
F3735       F  0.65287342  0.44746506  0.87213215    -0.22600
F3736       F  0.68680369  0.43540003  0.85896958    -0.24200
C3737       C  0.59922141  0.37456692  0.79231680    -0.11000
C3738       C  0.60401288  0.39773500  0.79532569     0.11600
C3739       C  0.62527428  0.40378848  0.80506053    -0.02800
C3740       C  0.63805375  0.38693582  0.81620670    -0.05600
C3741       C  0.63035482  0.36397281  0.81831216    -0.16300
C3742       C  0.61404215  0.35757828  0.80088232     0.02600
C3743       C  0.58541050  0.41484714  0.79261731     0.12500
C3744       C  0.63459452  0.42789290  0.80545376     0.63200
H3745       H  0.65369526  0.39253189  0.82440621     0.12600
C3746       C  0.61143130  0.33444470  0.78959465     0.55300
H3747       H  0.58378844  0.36954243  0.78332677     0.08400
C3748       C  0.57617645  0.42177521  0.77137300    -0.05500
C3749       C  0.55889417  0.43856345  0.77108471    -0.06200
C3750       C  0.55114135  0.44915407  0.79122082    -0.15800
C3751       C  0.56155838  0.44282396  0.81246428    -0.01400
C3752       C  0.57795971  0.42539763  0.81259999    -0.08900
C3753       C  0.58504513  0.41208008  0.74914752     0.65400
H3754       H  0.55135025  0.44355285  0.75493835     0.10800
C3755       C  0.55617839  0.45430861  0.83512989     0.63800
H3756       H  0.58560510  0.41995138  0.82854736     0.08200
F3757       F  0.61274259  0.33724727  0.76620890    -0.19300
F3758       F  0.59037641  0.32504237  0.79443074    -0.15500
F3759       F  0.62823691  0.31941375  0.79556683    -0.19000
F3760       F  0.63504478  0.43581566  0.82766757    -0.22400
F3761       F  0.62185988  0.44273543  0.79222471    -0.23900
F3762       F  0.65664216  0.42784766  0.79715696    -0.17900
F3763       F  0.53380290  0.44994726  0.84111142    -0.20300
F3764       F  0.55975706  0.47752668  0.83343888    -0.21500
F3765       F  0.56999734  0.44651471  0.85275223    -0.18700
F3766       F  0.57597225  0.42329642  0.73040956    -0.18800
F3767       F  0.57926561  0.38935927  0.74731656    -0.22600
F3768       F  0.60855967  0.41424257  0.74847716    -0.24200
C3769       C  0.60735814  0.32278965  0.89181599    -0.11000
C3770       C  0.58488781  0.32168902  0.88382680     0.11600
C3771       C  0.58015928  0.32795675  0.86111854    -0.02800
C3772       C  0.59812407  0.33582358  0.84755056    -0.05600
C3773       C  0.62135095  0.33688718  0.85474220    -0.16300
C3774       C  0.62580276  0.32911455  0.87786244     0.02600
C3775       C  0.56663981  0.31723066  0.90072685     0.12500
C3776       C  0.55629896  0.32797261  0.85055995     0.63200
H3777       H  0.59289257  0.34204854  0.83120706     0.12600
C3778       C  0.64917309  0.32759124  0.88962419     0.55300
H3779       H  0.61046109  0.31887527  0.90965691     0.08400
C3780       C  0.56251261  0.29542906  0.90997102    -0.05500
C3781       C  0.54605584  0.29316471  0.92723629    -0.06200
C3782       C  0.53297699  0.31180363  0.93481881    -0.15800
C3783       C  0.53583022  0.33329180  0.92374636    -0.01400
C3784       C  0.55322933  0.33564554  0.90755092    -0.08900
C3785       C  0.57504943  0.27464406  0.90114916     0.65400
H3786       H  0.54341297  0.27668653  0.93499406     0.10800
C3787       C  0.52055236  0.35376704  0.92819262     0.63800
H3788       H  0.55650532  0.35202892  0.89978786     0.08200
F3789       F  0.64977816  0.30929379  0.90450247    -0.19300
F3790       F  0.65316459  0.34710227  0.90224111    -0.15500
F3791       F  0.66672898  0.32416339  0.87457819    -0.19000
F3792       F  0.54933230  0.35023434  0.84731798    -0.22400
F3793       F  0.54024528  0.31692624  0.86365944    -0.23900
F3794       F  0.55678532  0.31712817  0.82961079    -0.17900
F3795       F  0.52445887  0.37125485  0.91290957    -0.20300
F3796       F  0.52463146  0.36222039  0.94987499    -0.21500
F3797       F  0.49784078  0.34757115  0.92584323    -0.18700
F3798       F  0.56686514  0.25473788  0.91067687    -0.18800
F3799       F  0.59806521  0.27630104  0.90630335    -0.22600
F3800       F  0.57224268  0.27312164  0.87773998    -0.24200
C3801       C  0.67629811  0.29481880  0.81847536    -0.11000
C3802       C  0.69193194  0.30540832  0.80417116     0.11600
C3803       C  0.69023145  0.32908918  0.80091626    -0.02800
C3804       C  0.67423994  0.34150824  0.81374720    -0.05600
C3805       C  0.65773424  0.33143047  0.82833278    -0.16300
C3806       C  0.65808026  0.30653793  0.82916152     0.02600
C3807       C  0.70807934  0.29057343  0.79103056     0.12500
C3808       C  0.70435729  0.34117292  0.78301683     0.63200
H3809       H  0.67429566  0.35975614  0.81193859     0.12600
C3810       C  0.63939794  0.29074111  0.83847726     0.55300
H3811       H  0.67795092  0.27654128  0.82016413     0.08400
C3812       C  0.73045163  0.28565416  0.79867145    -0.05500
C3813       C  0.74490334  0.27279960  0.78433925    -0.06200
C3814       C  0.73742893  0.26263001  0.76349279    -0.15800
C3815       C  0.71280969  0.26149103  0.76109558    -0.01400
C3816       C  0.69945256  0.27795415  0.77258431    -0.08900
C3817       C  0.73873571  0.29314560  0.82215584     0.65400
H3818       H  0.76243624  0.27094353  0.78955944     0.10800
C3819       C  0.69853753  0.24220513  0.75082325     0.63800
H3820       H  0.68131988  0.27917839  0.76879008     0.08200
F3821       F  0.64066380  0.28919057  0.86183234    -0.19300
F3822       F  0.64164101  0.26868126  0.83038469    -0.15500
F3823       F  0.61791565  0.29744889  0.83162096    -0.19000
F3824       F  0.69937429  0.33206628  0.76180282    -0.22400
F3825       F  0.72735734  0.33857408  0.78759179    -0.23900
F3826       F  0.69975311  0.36426915  0.78216041    -0.17900
F3827       F  0.68181346  0.23600349  0.76618897    -0.20300
F3828       F  0.71057378  0.22266186  0.74650540    -0.21500
F3829       F  0.68765765  0.24948352  0.73113964    -0.18700
F3830       F  0.76038107  0.28492581  0.82707742    -0.18800
F3831       F  0.72405652  0.28489104  0.83853438    -0.22600
F3832       F  0.73936362  0.31657774  0.82365245    -0.24200
C3833       C  0.37629505  0.41052141  0.81008070    -0.11000
C3834       C  0.39456680  0.39842548  0.80106342     0.11600
C3835       C  0.39335988  0.37457203  0.80024411    -0.02800
C3836       C  0.37488664  0.36369426  0.81076370    -0.05600
C3837       C  0.35702313  0.37533409  0.82242299    -0.16300
C3838       C  0.35691720  0.39993302  0.81963520     0.02600
C3839       C  0.41549692  0.41164436  0.79556612     0.12500
C3840       C  0.41183312  0.35979069  0.78993031     0.63200
H3841       H  0.37496382  0.34526798  0.81063661     0.12600
C3842       C  0.33755292  0.41618502  0.82542515     0.55300
H3843       H  0.37795090  0.42887675  0.81031182     0.08400
C3844       C  0.41647956  0.42625175  0.77648407    -0.05500
C3845       C  0.43461132  0.44190609  0.77501448    -0.06200
C3846       C  0.45180550  0.44316229  0.79187919    -0.15800
C3847       C  0.45211214  0.42671664  0.80965647    -0.01400
C3848       C  0.43369299  0.41138108  0.81129354    -0.08900
C3849       C  0.39837666  0.42526107  0.75783205     0.65400
H3850       H  0.43490084  0.45398173  0.76109242     0.10800
C3851       C  0.47177876  0.42497853  0.82667962     0.63800
H3852       H  0.43293941  0.39959087  0.82542387     0.08200
F3853       F  0.31734880  0.40948804  0.81553745    -0.19300
F3854       F  0.34139850  0.43809752  0.81762417    -0.15500
F3855       F  0.33531918  0.41781552  0.84840646    -0.19000
F3856       F  0.42471304  0.35017296  0.80728115    -0.22400
F3857       F  0.42615530  0.37184748  0.77574666    -0.23900
F3858       F  0.40192789  0.34254752  0.77711601    -0.17900
F3859       F  0.47100429  0.44291126  0.84194019    -0.20300
F3860       F  0.49238555  0.42532526  0.81530928    -0.21500
F3861       F  0.47085627  0.40494010  0.83904141    -0.18700
F3862       F  0.40434186  0.43832115  0.73918773    -0.18800
F3863       F  0.37780711  0.43321602  0.76599385    -0.22600
F3864       F  0.39563537  0.40302745  0.75050300    -0.24200
C3865       C  0.29854646  0.40004970  0.87004788    -0.11000
C3866       C  0.30988458  0.40214175  0.89113651     0.11600
C3867       C  0.32522084  0.38476470  0.89753588    -0.02800
C3868       C  0.33148085  0.36855086  0.88107898    -0.05600
C3869       C  0.32626810  0.37120200  0.85743541    -0.16300
C3870       C  0.30513776  0.38337780  0.85364877     0.02600
C3871       C  0.30377512  0.42084234  0.90733511     0.12500
C3872       C  0.33528691  0.38348246  0.92151828     0.63200
H3873       H  0.34141609  0.35429563  0.88693836     0.12600
C3874       C  0.28668744  0.37588899  0.83665178     0.55300
H3875       H  0.28418583  0.41121436  0.86679977     0.08400
C3876       C  0.31627644  0.44153837  0.90844859    -0.05500
C3877       C  0.31251945  0.45646035  0.92667280    -0.06200
C3878       C  0.29607719  0.45211234  0.94323633    -0.15800
C3879       C  0.28203011  0.43254594  0.94112457    -0.01400
C3880       C  0.28639978  0.41697176  0.92327573    -0.08900
C3881       C  0.33312055  0.44837985  0.89030483     0.65400
H3882       H  0.32244662  0.47197115  0.92812801     0.10800
C3883       C  0.26287077  0.42797754  0.95772231     0.63800
H3884       H  0.27662532  0.40136950  0.92188149     0.08200
F3885       F  0.26812204  0.39048654  0.83677227    -0.19300
F3886       F  0.27880467  0.35462275  0.84276400    -0.15500
F3887       F  0.29427230  0.37503977  0.81464119    -0.19000
F3888       F  0.31801664  0.38048020  0.93713535    -0.22400
F3889       F  0.34693325  0.40335545  0.92659140    -0.23900
F3890       F  0.35050039  0.36558611  0.92391266    -0.17900
F3891       F  0.24606933  0.44429581  0.95492700    -0.20300
F3892       F  0.27109491  0.42872302  0.97990533    -0.21500
F3893       F  0.25303469  0.40682338  0.95416050    -0.18700
F3894       F  0.34393349  0.46878375  0.89530310    -0.18800
F3895       F  0.32144457  0.45114775  0.86993427    -0.22600
F3896       F  0.34981108  0.43198373  0.88822283    -0.24200
C3897       C  0.39348290  0.34438620  0.88152846    -0.11000
C3898       C  0.39486848  0.32087049  0.87979436     0.11600
C3899       C  0.38166458  0.30960480  0.86304328    -0.02800
C3900       C  0.36609372  0.32239087  0.84966326    -0.05600
C3901       C  0.36268544  0.34627260  0.85250730    -0.16300
C3902       C  0.37918985  0.35757504  0.86744375     0.02600
C3903       C  0.41147861  0.30934175  0.89540570     0.12500
C3904       C  0.38465453  0.28429376  0.85882821     0.63200
H3905       H  0.35719249  0.31347256  0.83623231     0.12600
C3906       C  0.38437896  0.38304732  0.86815897     0.55300
H3907       H  0.40478404  0.35251009  0.89379314     0.08400
C3908       C  0.43517936  0.31433716  0.89477382    -0.05500
C3909       C  0.44873524  0.30962536  0.91408938    -0.06200
C3910       C  0.43992459  0.29856006  0.93328224    -0.15800
C3911       C  0.41700049  0.29063290  0.93248017    -0.01400
C3912       C  0.40290643  0.29718994  0.91403061    -0.08900
C3913       C  0.44620314  0.32662355  0.87498124     0.65400
H3914       H  0.46637118  0.31527737  0.91448878     0.10800
C3915       C  0.40615489  0.27611005  0.95062856     0.63800
H3916       H  0.38477132  0.29353430  0.91465799     0.08200
F3917       F  0.39873443  0.38841490  0.85050068    -0.19300
F3918       F  0.39522701  0.38950212  0.88826024    -0.15500
F3919       F  0.36526371  0.39609251  0.86671074    -0.19000
F3920       F  0.37826917  0.27217347  0.87789906    -0.22400
F3921       F  0.40730298  0.27972326  0.85413768    -0.23900
F3922       F  0.37151959  0.27671009  0.84058961    -0.17900
F3923       F  0.38987456  0.28876743  0.96191977    -0.20300
F3924       F  0.42191289  0.26781606  0.96609504    -0.21500
F3925       F  0.39551876  0.25760726  0.94046046    -0.18700
F3926       F  0.46833948  0.31895211  0.87204284    -0.18800
F3927       F  0.44685015  0.34972178  0.87946679    -0.22600
F3928       F  0.43441986  0.32288289  0.85476649    -0.24200
C3929       C  0.30755517  0.32241556  0.79236007    -0.11000
C3930       C  0.29838678  0.30558573  0.80622217     0.11600
C3931       C  0.30363183  0.30603400  0.82972085    -0.02800
C3932       C  0.31618119  0.32467092  0.83868608    -0.05600
C3933       C  0.32678748  0.34162923  0.82494036    -0.16300
C3934       C  0.32161698  0.34035778  0.80051224     0.02600
C3935       C  0.28554697  0.28676513  0.79429602     0.12500
C3936       C  0.29823376  0.28584314  0.84489559     0.63200
H3937       H  0.31935502  0.32521539  0.85688364     0.12600
C3938       C  0.32942436  0.35652651  0.78152030     0.55300
H3939       H  0.30400786  0.32066234  0.77427805     0.08400
C3940       C  0.26186822  0.28768888  0.78958511    -0.05500
C3941       C  0.25229346  0.27199834  0.77381966    -0.06200
C3942       C  0.26549757  0.25649263  0.76048256    -0.15800
C3943       C  0.28917146  0.25419499  0.76769640    -0.01400
C3944       C  0.29844981  0.26990138  0.78370848    -0.08900
C3945       C  0.24693777  0.30626338  0.79973679     0.65400
H3946       H  0.23403843  0.27253748  0.77094145     0.10800
C3947       C  0.30512787  0.23510985  0.76066129     0.63800
H3948       H  0.31651717  0.26971476  0.78782253     0.08200
F3949       F  0.31521641  0.35529033  0.76250580    -0.19300
F3950       F  0.35095504  0.35059219  0.77427756    -0.15500
F3951       F  0.32884924  0.37895111  0.78782087    -0.19000
F3952       F  0.31082321  0.26728182  0.83780464    -0.22400
F3953       F  0.27536314  0.28032929  0.84368613    -0.23900
F3954       F  0.30368493  0.29013939  0.86752769    -0.17900
F3955       F  0.31036892  0.23685162  0.73792427    -0.20300
F3956       F  0.29532733  0.21441901  0.76572730    -0.21500
F3957       F  0.32577546  0.23566588  0.77239790    -0.18700
F3958       F  0.22468410  0.30512632  0.79161417    -0.18800
F3959       F  0.25555018  0.32744010  0.79421850    -0.22600
F3960       F  0.24629826  0.30430998  0.82315511    -0.24200
C3961       C  0.37403569  0.40485695  0.15037862    -0.11000
C3962       C  0.39542598  0.39692806  0.15750865     0.11600
C3963       C  0.39744010  0.37436466  0.16560401    -0.02800
C3964       C  0.37837521  0.35981790  0.16360567    -0.05600
C3965       C  0.35743105  0.36701362  0.15346832    -0.16300
C3966       C  0.35452545  0.39104322  0.15185694     0.02600
C3967       C  0.41395864  0.41397772  0.16048007     0.12500
C3968       C  0.41983097  0.36546713  0.17538794     0.63200
H3969       H  0.38055009  0.34207027  0.16756183     0.12600
C3970       C  0.33446599  0.40290617  0.16280236     0.55300
H3971       H  0.37194214  0.42298249  0.14751635     0.08400
C3972       C  0.42788334  0.42112888  0.14231048    -0.05500
C3973       C  0.44462289  0.43784107  0.14651497    -0.06200
C3974       C  0.44725914  0.44825535  0.16804003    -0.15800
C3975       C  0.43225364  0.44183362  0.18595467    -0.01400
C3976       C  0.41606139  0.42458692  0.18176712    -0.08900
C3977       C  0.42460119  0.41153959  0.11850511     0.65400
H3978       H  0.45572919  0.44300423  0.13280538     0.10800
C3979       C  0.43244619  0.45339664  0.20918282     0.63800
H3980       H  0.40454461  0.41929245  0.19510425     0.08200
F3981       F  0.32175323  0.41432729  0.14654820    -0.19300
F3982       F  0.34204909  0.41879690  0.17868229    -0.15500
F3983       F  0.32117762  0.38769633  0.17459473    -0.19000
F3984       F  0.42555794  0.37741974  0.19493858    -0.22400
F3985       F  0.43704094  0.36803580  0.15962357    -0.23900
F3986       F  0.41848028  0.34262965  0.18099961    -0.17900
F3987       F  0.43064992  0.47672076  0.20650586    -0.20300
F3988       F  0.45240260  0.44817440  0.22081987    -0.21500
F3989       F  0.41436786  0.44640010  0.22253927    -0.18700
F3990       F  0.44011487  0.42047990  0.10325050    -0.18800
F3991       F  0.40287807  0.41675653  0.11072030    -0.22600
F3992       F  0.42731991  0.38819344  0.11889095    -0.24200
C3993       C  0.38588360  0.30516743  0.10886990    -0.11000
C3994       C  0.39603882  0.31979607  0.09325770     0.11600
C3995       C  0.39143240  0.34325936  0.09440839    -0.02800
C3996       C  0.37610601  0.35108618  0.11091237    -0.05600
C3997       C  0.36333031  0.33633848  0.12536411    -0.16300
C3998       C  0.37142183  0.31300781  0.12636759     0.02600
C3999       C  0.41103488  0.31007623  0.07540550     0.12500
C4000       C  0.40195897  0.35992241  0.07763710     0.63200
H4001       H  0.37240020  0.36911108  0.11135224     0.12600
C4002       C  0.36772947  0.29554414  0.14529180     0.55300
H4003       H  0.39005280  0.28722344  0.10774339     0.08400
C4004       C  0.43416419  0.30413499  0.07955891    -0.05500
C4005       C  0.44776974  0.29757641  0.06092005    -0.06200
C4006       C  0.43902118  0.29745275  0.03855492    -0.15800
C4007       C  0.41551525  0.30182549  0.03485907    -0.01400
C4008       C  0.40178993  0.30759594  0.05347820    -0.08900
C4009       C  0.44458198  0.30562641  0.10332573     0.65400
H4010       H  0.46567882  0.29376760  0.06348636     0.10800
C4011       C  0.40480084  0.29944582  0.01145987     0.63800
H4012       H  0.38378990  0.31116622  0.05095534     0.08200
F4013       F  0.36426728  0.30515564  0.16632289    -0.19300
F4014       F  0.34986921  0.28120148  0.13959644    -0.15500
F4015       F  0.38705336  0.28214904  0.14796057    -0.19000
F4016       F  0.39512499  0.35470705  0.05563655    -0.22400
F4017       F  0.42551427  0.35886182  0.07904439    -0.23900
F4018       F  0.39534586  0.38209691  0.08185599    -0.17900
F4019       F  0.40622636  0.27688749  0.00510745    -0.20300
F4020       F  0.41604003  0.31291393  0.99583182    -0.21500
F4021       F  0.38199668  0.30567555  0.01122854    -0.18700
F4022       F  0.46742369  0.29953604  0.10350000    -0.18800
F4023       F  0.43319315  0.29114122  0.11787438    -0.22600
F4024       F  0.44291409  0.32764978  0.11148122    -0.24200
C4025       C  0.29736690  0.39034968  0.11172889    -0.11000
C4026       C  0.30672342  0.39255016  0.09013512     0.11600
C4027       C  0.32222028  0.37597381  0.08264152    -0.02800
C4028       C  0.32948676  0.35921887  0.09814002    -0.05600
C4029       C  0.32533182  0.36054410  0.12203184    -0.16300
C4030       C  0.30510353  0.37379784  0.12753165     0.02600
C4031       C  0.30101072  0.41284231  0.07610473     0.12500
C4032       C  0.33181385  0.37649195  0.05861643     0.63200
H4033       H  0.33949161  0.34554524  0.09128680     0.12600
C4034       C  0.28735976  0.36942736  0.14604046     0.55300
H4035       H  0.28356810  0.40176213  0.11623316     0.08400
C4036       C  0.28203775  0.41377655  0.06098716    -0.05500
C4037       C  0.28040461  0.43218391  0.04557865    -0.06200
C4038       C  0.29665332  0.44983985  0.04565176    -0.15800
C4039       C  0.31402556  0.45005521  0.06280709    -0.01400
C4040       C  0.31600957  0.43132820  0.07751414    -0.08900
C4041       C  0.26344342  0.39577491  0.06159738     0.65400
H4042       H  0.26671157  0.43265677  0.03304852     0.10800
C4043       C  0.33058907  0.46982219  0.06580809     0.63800
H4044       H  0.32994092  0.43055261  0.08979415     0.08200
F4045       F  0.26820079  0.35991473  0.13584029    -0.19300
F4046       F  0.28078626  0.38976509  0.15599567    -0.15500
F4047       F  0.29391084  0.35524617  0.16322777    -0.19000
F4048       F  0.34396556  0.39639459  0.05542649    -0.22400
F4049       F  0.31430036  0.37543685  0.04271509    -0.23900
F4050       F  0.34639027  0.35843268  0.05457876    -0.17900
F4051       F  0.34163324  0.46906160  0.08677707    -0.20300
F4052       F  0.31896930  0.49029000  0.06459572    -0.21500
F4053       F  0.34704122  0.46905979  0.04905977    -0.18700
F4054       F  0.24694164  0.39940844  0.04494222    -0.18800
F4055       F  0.25292813  0.39636662  0.08259936    -0.22600
F4056       F  0.27253913  0.37435400  0.05827839    -0.24200
C4057       C  0.30267051  0.27718877  0.22021656    -0.11000
C4058       C  0.29204324  0.28765246  0.20155071     0.11600
C4059       C  0.26846908  0.28357132  0.19803084    -0.02800
C4060       C  0.25761035  0.26679471  0.21117022    -0.05600
C4061       C  0.26775338  0.25628797  0.23064016    -0.16300
C4062       C  0.29019464  0.26505380  0.23669031     0.02600
C4063       C  0.30588543  0.30279654  0.18634233     0.12500
C4064       C  0.25371639  0.29654781  0.18093520     0.63200
H4065       H  0.24045112  0.26332975  0.20607283     0.12600
C4066       C  0.30154256  0.26526787  0.26029877     0.55300
H4067       H  0.32067426  0.28025936  0.22318576     0.08400
C4068       C  0.31826408  0.32186361  0.19456447    -0.05500
C4069       C  0.33100684  0.33487489  0.17909515    -0.06200
C4070       C  0.32998584  0.33163966  0.15498878    -0.15800
C4071       C  0.31570730  0.31327216  0.14677449    -0.01400
C4072       C  0.30556729  0.29847926  0.16282050    -0.08900
C4073       C  0.31763032  0.32954388  0.21939380     0.65400
H4074       H  0.34099147  0.34849890  0.18634293     0.10800
C4075       C  0.30938661  0.30922463  0.12167716     0.63800
H4076       H  0.29576550  0.28392023  0.15704579     0.08200
F4077       F  0.30968723  0.28695577  0.26488384    -0.19300
F4078       F  0.31992425  0.25054550  0.26076282    -0.15500
F4079       F  0.28707559  0.26018162  0.27786597    -0.19000
F4080       F  0.24968694  0.28302248  0.16200190    -0.22400
F4081       F  0.26347158  0.31681582  0.17413088    -0.23900
F4082       F  0.23295923  0.30193814  0.19070448    -0.17900
F4083       F  0.29849437  0.28852542  0.11843482    -0.20300
F4084       F  0.32825473  0.30896815  0.10790559    -0.21500
F4085       F  0.29445458  0.32583312  0.11424948    -0.18700
F4086       F  0.32259633  0.35251071  0.22144274    -0.18800
F4087       F  0.33366873  0.31763817  0.23201113    -0.22600
F4088       F  0.29618476  0.32627418  0.22854653    -0.24200
C4089       C  0.62879523  0.65463073  0.09564850    -0.11000
C4090       C  0.60699037  0.65902199  0.10417541     0.11600
C4091       C  0.60435186  0.66268913  0.12778720    -0.02800
C4092       C  0.62352150  0.66011923  0.14221069    -0.05600
C4093       C  0.64500480  0.65233268  0.13407069    -0.16300
C4094       C  0.64811063  0.65483880  0.11011889     0.02600
C4095       C  0.58805851  0.66321807  0.08766458     0.12500
C4096       C  0.58117525  0.66829195  0.13774329     0.63200
H4097       H  0.62100990  0.66134205  0.16031413     0.12600
C4098       C  0.66781584  0.66847574  0.10071245     0.55300
H4099       H  0.63115744  0.65504648  0.07732203     0.08400
C4100       C  0.58569460  0.68404009  0.07567502    -0.05500
C4101       C  0.56841030  0.68596507  0.05901635    -0.06200
C4102       C  0.55267550  0.66838192  0.05465876    -0.15800
C4103       C  0.55428138  0.64797953  0.06768118    -0.01400
C4104       C  0.57240838  0.64560458  0.08351314    -0.08900
C4105       C  0.60052647  0.70492712  0.07976121     0.65400
H4106       H  0.56712650  0.70165359  0.04938178     0.10800
C4107       C  0.53668212  0.62903566  0.06567398     0.63800
H4108       H  0.57450587  0.62989403  0.09294301     0.08200
F4109       F  0.65970027  0.68736401  0.08908622    -0.19300
F4110       F  0.68004358  0.65550446  0.08546562    -0.15500
F4111       F  0.68169252  0.67668852  0.11792220    -0.19000
F4112       F  0.56626820  0.65043691  0.13371303    -0.22400
F4113       F  0.57254332  0.68779961  0.12773448    -0.23900
F4114       F  0.58239048  0.67188062  0.16106298    -0.17900
F4115       F  0.53949061  0.61284607  0.08260167    -0.20300
F4116       F  0.53868488  0.61816545  0.04486111    -0.21500
F4117       F  0.51492827  0.63797093  0.06772566    -0.18700
F4118       F  0.58663175  0.72347816  0.08395107    -0.18800
F4119       F  0.61319336  0.70921172  0.06045196    -0.22600
F4120       F  0.61532306  0.70284364  0.09810185    -0.24200
C4121       C  0.69834423  0.61183724  0.10205660    -0.11000
C4122       C  0.68971052  0.58966796  0.10121234     0.11600
C4123       C  0.67941066  0.58081509  0.12085946    -0.02800
C4124       C  0.67349223  0.59597917  0.13836424    -0.05600
C4125       C  0.67666501  0.62002597  0.13674135    -0.16300
C4126       C  0.69428442  0.62637861  0.12089184     0.02600
C4127       C  0.69207107  0.57575102  0.08007713     0.12500
C4128       C  0.67461865  0.55549412  0.12326920     0.63200
H4129       H  0.66513480  0.58877323  0.15292927     0.12600
C4130       C  0.71417221  0.64261701  0.12577921     0.55300
H4131       H  0.70968462  0.61723023  0.08858701     0.08400
C4132       C  0.67495113  0.57595459  0.06288804    -0.05500
C4133       C  0.67651031  0.56048547  0.04458754    -0.06200
C4134       C  0.69456919  0.54481240  0.04290522    -0.15800
C4135       C  0.71195337  0.54488305  0.06009608    -0.01400
C4136       C  0.71048987  0.56067463  0.07821645    -0.08900
C4137       C  0.65492941  0.59231487  0.06416936     0.65400
H4138       H  0.66337850  0.56037914  0.03147108     0.10800
C4139       C  0.73133976  0.52769815  0.06017688     0.63800
H4140       H  0.72335915  0.56091065  0.09159740     0.08200
F4141       F  0.71939963  0.65513725  0.10655850    -0.19300
F4142       F  0.73324802  0.62980900  0.13131347    -0.15500
F4143       F  0.71068559  0.65759079  0.14333177    -0.19000
F4144       F  0.69505977  0.54372133  0.12343310    -0.22400
F4145       F  0.66123445  0.54785838  0.10527727    -0.23900
F4146       F  0.66332618  0.55051246  0.14328957    -0.17900
F4147       F  0.74552735  0.53161644  0.04188480    -0.20300
F4148       F  0.72256542  0.50585867  0.05882731    -0.21500
F4149       F  0.74449558  0.52909453  0.07988023    -0.18700
F4150       F  0.63990458  0.58956999  0.04600573    -0.18800
F4151       F  0.66289058  0.61445760  0.06390061    -0.22600
F4152       F  0.64298316  0.58874820  0.08406436    -0.24200
C4153       C  0.61548391  0.60494034  0.19158078    -0.11000
C4154       C  0.60449016  0.59134140  0.17524016     0.11600
C4155       C  0.60962471  0.59417959  0.15210783    -0.02800
C4156       C  0.62736532  0.60883961  0.14633512    -0.05600
C4157       C  0.64060496  0.62158704  0.16248477    -0.16300
C4158       C  0.63241927  0.62123008  0.18581024     0.02600
C4159       C  0.58647110  0.57509859  0.18226385     0.12500
C4160       C  0.59630318  0.58180906  0.13340444     0.63200
H4161       H  0.63144407  0.61036625  0.12844413     0.12600
C4162       C  0.63858561  0.63824844  0.20475779     0.55300
H4163       H  0.61013357  0.60292338  0.20909002     0.08400
C4164       C  0.59066253  0.55141408  0.18445144    -0.05500
C4165       C  0.57189853  0.53645850  0.18469311    -0.06200
C4166       C  0.54941260  0.54447156  0.18284765    -0.15800
C4167       C  0.54521409  0.56813835  0.18257301    -0.01400
C4168       C  0.56392105  0.58318385  0.18268955    -0.08900
C4169       C  0.61436514  0.54093805  0.18574276     0.65400
H4170       H  0.57489288  0.51827197  0.18536901     0.10800
C4171       C  0.52106462  0.57725473  0.18092075     0.63800
H4172       H  0.56109668  0.60133917  0.18115710     0.08200
F4173       F  0.65959104  0.63348809  0.21429572    -0.19300
F4174       F  0.63802595  0.66030482  0.19694194    -0.15500
F4175       F  0.62305403  0.63745579  0.22242538    -0.19000
F4176       F  0.57335098  0.58705573  0.13485851    -0.22400
F4177       F  0.59910750  0.55858284  0.13565345    -0.23900
F4178       F  0.60344215  0.58788622  0.11182736    -0.17900
F4179       F  0.52047518  0.60077207  0.18214856    -0.20300
F4180       F  0.50811634  0.56865108  0.19853930    -0.21500
F4181       F  0.51147990  0.57066909  0.16034052    -0.18700
F4182       F  0.61631399  0.52837986  0.20558914    -0.18800
F4183       F  0.63174543  0.55686343  0.18577660    -0.22600
F4184       F  0.61739490  0.52654344  0.16733090    -0.24200
C4185       C  0.73417722  0.70661610  0.19737205    -0.11000
C4186       C  0.71689999  0.69653337  0.20989847     0.11600
C4187       C  0.71490368  0.70184025  0.23315102    -0.02800
C4188       C  0.73003067  0.71793130  0.24283981    -0.05600
C4189       C  0.74768931  0.72919362  0.23045421    -0.16300
C4190       C  0.74803264  0.72444259  0.20588723     0.02600
C4191       C  0.70066738  0.68135924  0.19725875     0.12500
C4192       C  0.69740440  0.68986306  0.24784940     0.63200
H4193       H  0.72865846  0.72130038  0.26091174     0.12600
C4194       C  0.76063136  0.73656873  0.18638531     0.55300
H4195       H  0.73556028  0.70135268  0.17968449     0.08400
C4196       C  0.68360036  0.69031744  0.18274953    -0.05500
C4197       C  0.67130757  0.67542534  0.16843228    -0.06200
C4198       C  0.67442406  0.65136387  0.16829251    -0.15800
C4199       C  0.69176320  0.64251954  0.18367238    -0.01400
C4200       C  0.70450620  0.65791213  0.19742493    -0.08900
C4201       C  0.67839392  0.71574021  0.18220872     0.65400
H4202       H  0.65897405  0.68320592  0.15727959     0.10800
C4203       C  0.69818544  0.61739854  0.18589680     0.63800
H4204       H  0.71839735  0.65182456  0.20808989     0.08200
F4205       F  0.74719498  0.73673580  0.16677401    -0.19300
F4206       F  0.78040015  0.72497451  0.18115108    -0.15500
F4207       F  0.76546449  0.75898615  0.19010363    -0.19000
F4208       F  0.70185247  0.66676168  0.24810748    -0.22400
F4209       F  0.67566904  0.69339372  0.23917689    -0.23900
F4210       F  0.69793643  0.69763438  0.27015082    -0.17900
F4211       F  0.71096094  0.61053156  0.16749940    -0.20300
F4212       F  0.67909819  0.60387499  0.18776951    -0.21500
F4213       F  0.71133685  0.61340367  0.20523927    -0.18700
F4214       F  0.66011737  0.72082827  0.16795144    -0.18800
F4215       F  0.69709910  0.72770524  0.17450103    -0.22600
F4216       F  0.67300984  0.72324049  0.20384710    -0.24200
C4217       C  0.68103060  0.37452316  0.07674997    -0.11000
C4218       C  0.69162916  0.39248208  0.08817898     0.11600
C4219       C  0.69448474  0.39120180  0.11208642    -0.02800
C4220       C  0.68409130  0.37297310  0.12381712    -0.05600
C4221       C  0.66882593  0.35764283  0.11270237    -0.16300
C4222       C  0.67179973  0.35585654  0.08829516     0.02600
C4223       C  0.69619652  0.41325763  0.07453530     0.12500
C4224       C  0.70696649  0.40974520  0.12525686     0.63200
H4225       H  0.68543010  0.37252121  0.14209284     0.12600
C4226       C  0.66822906  0.33522981  0.07280059     0.55300
H4227       H  0.68023312  0.37494319  0.05824961     0.08400
C4228       C  0.71350002  0.41437910  0.05781982    -0.05500
C4229       C  0.71267317  0.43209357  0.04160465    -0.06200
C4230       C  0.69504169  0.44835275  0.04146696    -0.15800
C4231       C  0.67859005  0.44792335  0.05918423    -0.01400
C4232       C  0.67939519  0.43015577  0.07513943    -0.08900
C4233       C  0.73265847  0.39695884  0.05702963     0.65400
H4234       H  0.72539328  0.43288208  0.02834499     0.10800
C4235       C  0.65998893  0.46582607  0.06144494     0.63800
H4236       H  0.66593786  0.42850466  0.08753167     0.08200
F4237       F  0.68837740  0.33092498  0.06138311    -0.19300
F4238       F  0.65147626  0.33984769  0.05669757    -0.15500
F4239       F  0.66277796  0.31552654  0.08382076    -0.19000
F4240       F  0.69534679  0.43010446  0.12317703    -0.22400
F4241       F  0.72873197  0.41242483  0.11680423    -0.23900
F4242       F  0.70884028  0.40463540  0.14823694    -0.17900
F4243       F  0.64375498  0.46291388  0.04441210    -0.20300
F4244       F  0.66938041  0.48738168  0.06000136    -0.21500
F4245       F  0.64897269  0.46434039  0.08219405    -0.18700
F4246       F  0.74775766  0.40139836  0.03955782    -0.18800
F4247       F  0.72395410  0.37535086  0.05365068    -0.22600
F4248       F  0.74478667  0.39740048  0.07733623    -0.24200
C4249       C  0.58235350  0.42698993  0.17791545    -0.11000
C4250       C  0.58186161  0.41522650  0.15710461     0.11600
C4251       C  0.56331909  0.41836027  0.14181229    -0.02800
C4252       C  0.54669738  0.43473071  0.14712995    -0.05600
C4253       C  0.54734921  0.44711837  0.16770710    -0.16300
C4254       C  0.56517094  0.44271344  0.18374898     0.02600
C4255       C  0.60040230  0.39875943  0.15214984     0.12500
C4256       C  0.56077457  0.40397079  0.12032035     0.63200
H4257       H  0.53270209  0.43769545  0.13530577     0.12600
C4258       C  0.56630648  0.45451094  0.20679549     0.55300
H4259       H  0.59634545  0.42357782  0.18962393     0.08400
C4260       C  0.62029126  0.40501269  0.14062696    -0.05500
C4261       C  0.63538543  0.38782002  0.13354746    -0.06200
C4262       C  0.63284901  0.36423638  0.13920400    -0.15800
C4263       C  0.61235048  0.35870658  0.15192509    -0.01400
C4264       C  0.59696277  0.37614874  0.15788603    -0.08900
C4265       C  0.62518019  0.42988183  0.13531371     0.65400
H4266       H  0.64827282  0.39335263  0.12203276     0.10800
C4267       C  0.60415018  0.33495153  0.15825106     0.63800
H4268       H  0.58112573  0.37214375  0.16642732     0.08200
F4269       F  0.56611476  0.47786010  0.20392558    -0.19300
F4270       F  0.58594130  0.44889608  0.21885114    -0.15500
F4271       F  0.54779684  0.44800857  0.21975114    -0.19000
F4272       F  0.55816581  0.38135610  0.12622292    -0.22400
F4273       F  0.57985988  0.40613016  0.10681243    -0.23900
F4274       F  0.54190554  0.41030551  0.10743419    -0.17900
F4275       F  0.58955624  0.33548273  0.17672881    -0.20300
F4276       F  0.62179077  0.32120590  0.16471314    -0.21500
F4277       F  0.59219783  0.32547626  0.14023027    -0.18700
F4278       F  0.64614803  0.43275291  0.12507703    -0.18800
F4279       F  0.62538059  0.44241398  0.15528880    -0.22600
F4280       F  0.60856539  0.43851285  0.12085068    -0.24200
C4281       C  0.55466809  0.32421077  0.07070906    -0.11000
C4282       C  0.57530095  0.31282038  0.06659768     0.11600
C4283       C  0.57690436  0.29833723  0.04729921    -0.02800
C4284       C  0.55771998  0.29596851  0.03268284    -0.05600
C4285       C  0.53753675  0.30847260  0.03601954    -0.16300
C4286       C  0.53595076  0.32286294  0.05545708     0.02600
C4287       C  0.59562285  0.31933142  0.08090142     0.12500
C4288       C  0.59909794  0.28637448  0.04149956     0.63200
H4289       H  0.55871370  0.28504360  0.01783374     0.12600
C4290       C  0.51483884  0.33709633  0.06006091     0.55300
H4291       H  0.55385389  0.33531051  0.08544667     0.08400
C4292       C  0.60495498  0.34128735  0.07949062    -0.05500
C4293       C  0.62164176  0.34774774  0.09534721    -0.06200
C4294       C  0.63223628  0.33276496  0.11137893    -0.15800
C4295       C  0.62447213  0.30918638  0.11070563    -0.01400
C4296       C  0.60533270  0.30380373  0.09635621    -0.08900
C4297       C  0.59721343  0.35860477  0.06172358     0.65400
H4298       H  0.62698389  0.36534935  0.09482749     0.10800
C4299       C  0.63592532  0.28859819  0.12229278     0.63800
H4300       H  0.59779753  0.28701276  0.09666150     0.08200
F4301       F  0.51306340  0.35425813  0.04404669    -0.19300
F4302       F  0.51563348  0.34713370  0.08143496    -0.15500
F4303       F  0.49556037  0.32358629  0.05898838    -0.19000
F4304       F  0.60452717  0.27075126  0.05825977    -0.22400
F4305       F  0.61656876  0.30212942  0.03985293    -0.23900
F4306       F  0.59756932  0.27483463  0.02093625    -0.17900
F4307       F  0.62218179  0.26942247  0.12121342    -0.20300
F4308       F  0.64062212  0.29184721  0.14499446    -0.21500
F4309       F  0.65585960  0.28308074  0.11124744    -0.18700
F4310       F  0.61434906  0.37423669  0.05736434    -0.18800
F4311       F  0.57834399  0.37021831  0.06960032    -0.22600
F4312       F  0.59179684  0.34818968  0.04120079    -0.24200
C4313       C  0.70605227  0.26575481  0.18897336    -0.11000
C4314       C  0.70941183  0.28927146  0.18854266     0.11600
C4315       C  0.72812000  0.29839282  0.20090446    -0.02800
C4316       C  0.74114924  0.28383990  0.21507532    -0.05600
C4317       C  0.73726728  0.25987131  0.21697568    -0.16300
C4318       C  0.72145455  0.25075895  0.20008741     0.02600
C4319       C  0.69423468  0.30352979  0.17342069     0.12500
C4320       C  0.73484475  0.32333610  0.19869719     0.63200
H4321       H  0.75509081  0.29162167  0.22423749     0.12600
C4322       C  0.72171852  0.22635618  0.19097356     0.55300
H4323       H  0.69199066  0.25910675  0.17887861     0.08400
C4324       C  0.69517935  0.30255071  0.14940358    -0.05500
C4325       C  0.68014844  0.31624355  0.13649638    -0.06200
C4326       C  0.66423492  0.33173365  0.14598677    -0.15800
C4327       C  0.66656956  0.33522621  0.17052109    -0.01400
C4328       C  0.67942594  0.31922051  0.18340999    -0.08900
C4329       C  0.71218774  0.28731846  0.13718613     0.65400
H4330       H  0.68129989  0.31525141  0.11831779     0.10800
C4331       C  0.65863917  0.35597080  0.18438275     0.63800
H4332       H  0.67906474  0.31977361  0.20187341     0.08200
F4333       F  0.74203257  0.22221724  0.17999418    -0.19300
F4334       F  0.70448951  0.22248720  0.17508122    -0.15500
F4335       F  0.71874948  0.21067189  0.20784862    -0.19000
F4336       F  0.71801216  0.33712166  0.20753853    -0.22400
F4337       F  0.73796237  0.32868457  0.17598368    -0.23900
F4338       F  0.75499805  0.32825038  0.21024754    -0.17900
F4339       F  0.67188277  0.35869459  0.20391970    -0.20300
F4340       F  0.63645434  0.35333209  0.19153545    -0.21500
F4341       F  0.66091897  0.37609415  0.17269197    -0.18700
F4342       F  0.71263171  0.29156356  0.11397574    -0.18800
F4343       F  0.70637956  0.26473816  0.14009776    -0.22600
F4344       F  0.73396832  0.29095724  0.14576209    -0.24200
C4345       C  0.38018070  0.67050668  0.10160139    -0.11000
C4346       C  0.40177826  0.66090300  0.10398886     0.11600
C4347       C  0.40647492  0.64695818  0.12279255    -0.02800
C4348       C  0.38853761  0.64126352  0.13745987    -0.05600
C4349       C  0.36597541  0.65062813  0.13595271    -0.16300
C4350       C  0.36220043  0.66616679  0.11700116     0.02600
C4351       C  0.41895232  0.66494756  0.08587316     0.12500
C4352       C  0.43044576  0.63771143  0.12705995     0.63200
H4353       H  0.39235212  0.62768719  0.14889611     0.12600
C4354       C  0.33946618  0.67708751  0.11032035     0.55300
H4355       H  0.37732529  0.68098142  0.08666329     0.08400
C4356       C  0.42042617  0.65075022  0.06642467    -0.05500
C4357       C  0.43779973  0.65491099  0.05052340    -0.06200
C4358       C  0.45319830  0.67319491  0.05297461    -0.15800
C4359       C  0.45117667  0.68783291  0.07227406    -0.01400
C4360       C  0.43403446  0.68329950  0.08839491    -0.08900
C4361       C  0.40327417  0.63172263  0.06212907     0.65400
H4362       H  0.43916374  0.64406105  0.03565888     0.10800
C4363       C  0.46709448  0.70791429  0.07631666     0.63800
H4364       H  0.43222579  0.69404883  0.10329029     0.08200
F4365       F  0.32616810  0.66176088  0.09830716    -0.19300
F4366       F  0.34260492  0.69588576  0.09644434    -0.15500
F4367       F  0.32790437  0.68501851  0.12882450    -0.19000
F4368       F  0.44556063  0.65563317  0.12962389    -0.22400
F4369       F  0.43730876  0.62435760  0.10896243    -0.23900
F4370       F  0.43175343  0.62466700  0.14662249    -0.17900
F4371       F  0.46352357  0.72415464  0.05962563    -0.20300
F4372       F  0.48958266  0.70071248  0.07593949    -0.21500
F4373       F  0.46340236  0.71819587  0.09722828    -0.18700
F4374       F  0.40850246  0.61923737  0.04282421    -0.18800
F4375       F  0.38174679  0.64093684  0.05910334    -0.22600
F4376       F  0.40283958  0.61690594  0.08038380    -0.24200
C4377       C  0.36960482  0.58357845  0.17721986    -0.11000
C4378       C  0.38998060  0.59206907  0.18624457     0.11600
C4379       C  0.39127109  0.61543547  0.19200968    -0.02800
C4380       C  0.37311371  0.62978200  0.18524296    -0.05600
C4381       C  0.35605303  0.62216944  0.16967307    -0.16300
C4382       C  0.35168632  0.59797200  0.17043979     0.02600
C4383       C  0.40998393  0.57661345  0.18560119     0.12500
C4384       C  0.41195888  0.62656397  0.20312783     0.49600
H4385       H  0.37456876  0.64762818  0.18906636     0.12600
C4386       C  0.32924358  0.58539804  0.16631779     0.55300
H4387       H  0.36786064  0.56531390  0.17498199     0.08400
C4388       C  0.41632099  0.56230438  0.20386699    -0.05500
C4389       C  0.43509988  0.54755399  0.20110086    -0.06200
C4390       C  0.44679799  0.54568831  0.18020302    -0.15800
C4391       C  0.43915514  0.55924653  0.16136562    -0.01400
C4392       C  0.42116161  0.57468285  0.16474811    -0.08900
C4393       C  0.40275441  0.56220479  0.22578629     0.65400
H4394       H  0.44028133  0.53680787  0.21519043     0.10800
C4395       C  0.44909027  0.55746157  0.13750268     0.63800
H4396       H  0.41489893  0.58497791  0.15073695     0.08200
F4397       F  0.32414132  0.57295161  0.18563756    -0.19300
F4398       F  0.33166815  0.57033773  0.14836921    -0.15500
F4399       F  0.31076007  0.59904519  0.16209544    -0.19000
F4400       F  0.42948828  0.61147078  0.20768470    -0.22400
F4401       F  0.40549261  0.63652054  0.22344063    -0.23900
F4402       F  0.42028551  0.64332207  0.18889636    -0.17900
F4403       F  0.44546219  0.53582416  0.12885510    -0.20300
F4404       F  0.47218796  0.56221032  0.13814360    -0.21500
F4405       F  0.43905058  0.57264845  0.12241442    -0.18700
F4406       F  0.41149513  0.54686139  0.24147101    -0.18800
F4407       F  0.38035433  0.55618278  0.22108170    -0.22600
F4408       F  0.40311702  0.58360274  0.23559693    -0.24200
C4409       C  0.30870220  0.58747934  0.05675180    -0.11000
C4410       C  0.30455359  0.58176891  0.07959115     0.11600
C4411       C  0.29517489  0.56005912  0.08472923    -0.02800
C4412       C  0.29221361  0.54419200  0.06695516    -0.05600
C4413       C  0.29837828  0.54928539  0.04453676    -0.16300
C4414       C  0.30609889  0.57140613  0.03908411     0.02600
C4415       C  0.31400833  0.59729163  0.09743099     0.12500
C4416       C  0.28878680  0.55223694  0.10848252     0.63200
H4417       H  0.28586950  0.52729158  0.07079857     0.12600
C4418       C  0.31189741  0.57775552  0.01472913     0.55300
H4419       H  0.31559980  0.60418036  0.05310295     0.08400
C4420       C  0.33701998  0.59582584  0.10398616    -0.05500
C4421       C  0.34504037  0.61018064  0.12123751    -0.06200
C4422       C  0.33153439  0.62659543  0.13303584    -0.15800
C4423       C  0.30775080  0.62828109  0.12557607    -0.01400
C4424       C  0.29995168  0.61340807  0.10789327    -0.08900
C4425       C  0.35317884  0.57863739  0.09317408     0.65400
H4426       H  0.36259232  0.60785987  0.12633765     0.10800
C4427       C  0.28883754  0.64280803  0.13607225     0.63800
H4428       H  0.28222402  0.61351695  0.10245526     0.08200
F4429       F  0.33013508  0.56486248  0.00731531    -0.19300
F4430       F  0.31777901  0.60048513  0.01281464    -0.15500
F4431       F  0.29320964  0.57372580  0.00068551    -0.19000
F4432       F  0.29129389  0.56892932  0.12487301    -0.22400
F4433       F  0.30228731  0.53388369  0.11460307    -0.23900
F4434       F  0.26616351  0.54542930  0.10835987    -0.17900
F4435       F  0.27101404  0.64616889  0.12073122    -0.20300
F4436       F  0.29586522  0.66416471  0.14227519    -0.21500
F4437       F  0.27985713  0.63173926  0.15468348    -0.18700
F4438       F  0.37487153  0.57939511  0.10276843    -0.18800
F4439       F  0.35526211  0.58305640  0.07014938    -0.22600
F4440       F  0.34481865  0.55683814  0.09606366    -0.24200
C4441       C  0.32688341  0.69566324  0.18591893    -0.11000
C4442       C  0.30751997  0.68734627  0.19684789     0.11600
C4443       C  0.30222549  0.66407061  0.19490952    -0.02800
C4444       C  0.31630304  0.65012082  0.18141033    -0.05600
C4445       C  0.33434603  0.65843982  0.16771823    -0.16300
C4446       C  0.34160662  0.68164180  0.17293566     0.02600
C4447       C  0.29325246  0.70355550  0.21031330     0.12500
C4448       C  0.28067092  0.65427049  0.20542789     0.63200
H4449       H  0.31254643  0.63234496  0.18087945     0.12600
C4450       C  0.36446252  0.69309471  0.16712721     0.55300
H4451       H  0.33081767  0.71355884  0.18823185     0.08400
C4452       C  0.29674714  0.70740856  0.23370241    -0.05500
C4453       C  0.28150801  0.72176905  0.24521905    -0.06200
C4454       C  0.26480350  0.73596332  0.23423579    -0.15800
C4455       C  0.26308936  0.73315184  0.20945511    -0.01400
C4456       C  0.27635395  0.71586908  0.19892274    -0.08900
C4457       C  0.31716501  0.69728657  0.24636098     0.65400
H4458       H  0.28301397  0.72226427  0.26354777     0.10800
C4459       C  0.24781764  0.74569690  0.19224672     0.63800
H4460       H  0.27408978  0.71203319  0.18095279     0.08200
F4461       F  0.37029413  0.70898840  0.18369247    -0.19300
F4462       F  0.36283217  0.70462606  0.14670339    -0.15500
F4463       F  0.38262079  0.67835212  0.16654790    -0.19000
F4464       F  0.26178857  0.66313154  0.19425891    -0.22400
F4465       F  0.27929435  0.65970504  0.22828626    -0.23900
F4466       F  0.27989075  0.63078850  0.20361986    -0.17900
F4467       F  0.24439846  0.76819293  0.19715717    -0.20300
F4468       F  0.22721577  0.73442465  0.19023206    -0.21500
F4469       F  0.25758349  0.74585435  0.17078862    -0.18700
F4470       F  0.31717223  0.70286409  0.26931945    -0.18800
F4471       F  0.33706622  0.70567842  0.23704904    -0.22600
F4472       F  0.31730084  0.67385677  0.24461154    -0.24200
loop_ 
_geom_bond_atom_site_label_1 
_geom_bond_atom_site_label_2 
_geom_bond_distance 
_geom_bond_site_symmetry_2 
_ccdc_geom_bond_type 
C1         C4349   1.608       .  S
C1         C4381   1.601       .  S
C1         C4422   1.595       .  S
C1         C4445   1.591       .  S
C2         C4221   1.603       .  S
C2         C4262   1.606       .  S
C2         C4294   1.591       .  S
C2         C4326   1.592       .  S
C3         C4093   1.605       .  S
C3         C4125   1.611       .  S
C3         C4157   1.602       .  S
C3         C4198   1.577       .  S
C4         C3965   1.594       .  S
C4         C3997   1.606       .  S
C4         C4029   1.613       .  S
C4         C4070   1.568       .  S
O5          Cu13   2.019       .  S
O5           C15   1.279       .  A
O6          Cu13   2.017       .  S
O6           C16   1.280       .  A
O7          Cu13   1.997       .  S
O7           C17   1.273       .  A
O8          Cu13   1.998       .  S
O8           C18   1.277       .  A
O9          Cu14   2.025       .  S
O9           C18   1.279       .  A
O10         Cu14   2.033       .  S
O10          C17   1.282       .  A
O11         Cu14   2.004       .  S
O11          C16   1.275       .  A
O12         Cu14   2.012       .  S
O12          C15   1.276       .  A
Cu13        Cu14   2.364       .  S
C15        C4166   1.476       .  S
C16        C3974   1.494       .  S
C17        C4390   1.502       .  S
C18        C4253   1.491       .  S
C19        C3837   1.594       .  S
C19        C3869   1.614       .  S
C19        C3901   1.619       .  S
C19        C3933   1.603       .  S
C20        C3709   1.599       .  S
C20        C3741   1.614       .  S
C20        C3773   1.590       .  S
C20        C3805   1.602       .  S
C21        C3581   1.613       .  S
C21        C3613   1.604       .  S
C21        C3645   1.613       .  S
C21        C3686   1.595       .  S
C22        C3453   1.602       .  S
C22        C3485   1.604       .  S
C22        C3517   1.605       .  S
C22        C3549   1.598       .  S
O23         Cu31   2.047   1_554  S
O23          C33   1.283       .  A
O24         Cu31   2.051       .  S
O24          C34   1.282       .  A
O25         Cu31   2.021       .  S
O25          C35   1.277       .  A
O26         Cu31   2.018   1_554  S
O26          C36   1.277       .  A
O27         Cu32   2.006   1_554  S
O27          C36   1.277       .  A
O28         Cu32   1.997       .  S
O28          C35   1.278       .  A
O29         Cu32   1.972       .  S
O29          C34   1.275       .  A
O30         Cu32   1.979   1_554  S
O30          C33   1.272       .  A
Cu31        Cu32   2.367       .  S
C33        C4038   1.488       .  S
C34        C3526   1.500       .  S
C35        C3878   1.482       .  S
C36        C4413   1.475       .  S
O37         Cu45   2.022   1_556  S
O37          C47   1.279       .  A
O38         Cu45   2.018       .  S
O38          C48   1.277       .  A
O39         Cu45   2.026       .  S
O39          C49   1.281       .  A
O40         Cu45   2.034   1_556  S
O40          C50   1.279       .  A
O41         Cu46   2.014   1_556  S
O41          C50   1.277       .  A
O42         Cu46   2.005       .  S
O42          C49   1.275       .  A
O43         Cu46   2.014       .  S
O43          C48   1.279       .  A
O44         Cu46   2.014   1_556  S
O44          C47   1.278       .  A
Cu45        Cu46   2.366       .  S
C47        C3622   1.489       .  S
C48        C4358   1.496       .  S
C49        C4102   1.494       .  S
C50        C3462   1.483       .  S
O51         Cu59   2.025   1_554  S
O51          C61   1.280       .  A
O52         Cu59   2.030       .  S
O52          C62   1.280       .  A
O53         Cu59   1.999   1_554  S
O53          C63   1.275       .  A
O54         Cu59   2.003       .  S
O54          C64   1.276       .  A
O55         Cu60   2.034       .  S
O55          C64   1.280       .  A
O56         Cu60   2.029   1_554  S
O56          C63   1.280       .  A
O57         Cu60   2.028       .  S
O57          C62   1.278       .  A
O58         Cu60   2.021   1_554  S
O58          C61   1.278       .  A
Cu59        Cu60   2.369       .  S
C61        C4134   1.496       .  S
C62        C3718   1.486       .  S
C63        C4230   1.490       .  S
C64        C3590   1.479       .  S
O65         Cu73   2.039       .  S
O65          C75   1.283       .  A
O66         Cu73   2.052   1_554  S
O66          C76   1.282       .  A
O67         Cu73   2.034       .  S
O67          C77   1.279       .  A
O68         Cu73   2.033   1_554  S
O68          C78   1.281       .  A
O69         Cu74   2.017   1_554  S
O69          C78   1.278       .  A
O70         Cu74   2.017       .  S
O70          C77   1.279       .  A
O71         Cu74   1.990   1_554  S
O71          C76   1.274       .  A
O72         Cu74   1.986       .  S
O72          C75   1.272       .  A
Cu73        Cu74   2.365       .  S
C75        C3782   1.500       .  S
C76        C4006   1.480       .  S
C77        C3910   1.487       .  S
C78        C4285   1.495       .  S
O79         Cu87   2.052       .  S
O79          C89   1.283       .  A
O80         Cu87   2.045       .  S
O80          C90   1.283       .  A
O81         Cu87   2.024       .  S
O81          C91   1.280       .  A
O82         Cu87   2.021       .  S
O82          C92   1.276       .  A
O83         Cu88   2.000       .  S
O83          C92   1.279       .  A
O84         Cu88   2.005       .  S
O84          C91   1.276       .  A
O85         Cu88   1.984       .  S
O85          C90   1.271       .  A
O86         Cu88   1.992       .  S
O86          C89   1.276       .  A
Cu87        Cu88   2.363       .  S
C89        C3494   1.494       .  S
C90        C3750   1.504       .  S
C91        C3846   1.489       .  S
C92        C3654   1.481       .  S
C93        C3325   1.577       .  S
C93        C3357   1.613       .  S
C93        C3389   1.588       .  S
C93        C3430   1.616       .  S
C94        C3206   1.604       .  S
C94        C3238   1.613       .  S
C94        C3261   1.628       .  S
C94        C3293   1.576       .  S
C95        C3078   1.602       .  S
C95        C3110   1.597       .  S
C95        C3133   1.617       .  S
C95        C3165   1.608       .  S
C96        C2941   1.594       .  S
C96        C2973   1.622       .  S
C96        C3005   1.607       .  S
C96        C3037   1.599       .  S
O97        Cu105   2.016       .  S
O97         C107   1.277       .  A
O98        Cu105   2.010       .  S
O98         C108   1.277       .  A
O99        Cu105   1.988       .  S
O99         C109   1.278       .  A
O100       Cu105   2.000       .  S
O100        C110   1.276       .  A
O101       Cu106   2.016       .  S
O101        C110   1.279       .  A
O102       Cu106   2.019       .  S
O102        C109   1.277       .  A
O103       Cu106   2.036       .  S
O103        C108   1.280       .  A
O104       Cu106   2.035       .  S
O104        C107   1.280       .  A
Cu105      Cu106   2.368       .  S
C107       C3229   1.486       .  S
C108       C3101   1.482       .  S
C109       C2950   1.495       .  S
C110       C3398   1.485       .  S
C111       C2813   1.617       .  S
C111       C2845   1.586       .  S
C111       C2877   1.604       .  S
C111       C2909   1.602       .  S
C112       C2685   1.611       .  S
C112       C2717   1.615       .  S
C112       C2749   1.585       .  S
C112       C2781   1.603       .  S
C113       C2566   1.614       .  S
C113       C2589   1.591       .  S
C113       C2621   1.610       .  S
C113       C2653   1.581       .  S
C114       C2429   1.611       .  S
C114       C2461   1.594       .  S
C114       C2493   1.622       .  S
C114       C2525   1.577       .  S
O115       Cu123   2.021   1_545  S
O115        C125   1.278       .  A
O116       Cu123   2.019       .  S
O116        C126   1.278       .  A
O117       Cu123   2.030   1_545  S
O117        C127   1.281       .  A
O118       Cu123   2.031       .  S
O118        C128   1.280       .  A
O119       Cu124   1.988       .  S
O119        C128   1.274       .  A
O120       Cu124   1.988   1_545  S
O120        C127   1.273       .  A
O121       Cu124   2.011       .  S
O121        C126   1.279       .  A
O122       Cu124   2.010   1_545  S
O122        C125   1.278       .  A
Cu123      Cu124   2.368       .  S
C125       C3334   1.477       .  S
C126       C2822   1.493       .  S
C127       C3197   1.499       .  S
C128       C2470   1.471       .  S
O129       Cu137   1.995   1_545  S
O129        C139   1.278       .  A
O130       Cu137   1.996       .  S
O130        C140   1.276       .  A
O131       Cu137   1.993       .  S
O131        C141   1.274       .  A
O132       Cu137   1.989   1_545  S
O132        C142   1.277       .  A
O133       Cu138   2.048       .  S
O133        C142   1.281       .  A
O134       Cu138   2.053   1_565  S
O134        C141   1.283       .  A
O135       Cu138   2.029   1_565  S
O135        C140   1.279       .  A
O136       Cu138   2.039       .  S
O136        C139   1.280       .  A
Cu137      Cu138   2.364   1_565  S
C139       C3069   1.501       .  S
C140       C2438   1.480       .  S
C141       C2557   1.488       .  S
C142       C3366   1.501       .  S
O143       Cu151   2.013       .  S
O143        C153   1.276       .  A
O144       Cu151   2.024   1_565  S
O144        C154   1.277       .  A
O145       Cu151   2.042   1_565  S
O145        C155   1.282       .  A
O146       Cu151   2.044       .  S
O146        C156   1.281       .  A
O147       Cu152   2.001       .  S
O147        C156   1.277       .  A
O148       Cu152   2.001   1_565  S
O148        C155   1.276       .  A
O149       Cu152   2.009   1_565  S
O149        C154   1.280       .  A
O150       Cu152   2.001       .  S
O150        C153   1.279       .  A
Cu151      Cu152   2.363       .  S
C153       C3142   1.485       .  S
C154       C2758   1.505       .  S
C155       C2630   1.490       .  S
C156       C2982   1.497       .  S
O157       Cu165   2.062   1_545  S
O157        C167   1.284       .  A
O158       Cu165   2.066       .  S
O158        C168   1.284       .  A
O159       Cu165   2.047   1_545  S
O159        C169   1.281       .  A
O160       Cu165   2.038       .  S
O160        C170   1.280       .  A
O161       Cu166   2.030       .  S
O161        C170   1.280       .  A
O162       Cu166   2.023   1_545  S
O162        C169   1.279       .  A
O163       Cu166   2.018       .  S
O163        C168   1.277       .  A
O164       Cu166   2.024   1_545  S
O164        C167   1.279       .  A
Cu165      Cu166   2.367       .  S
C167       C3270   1.501       .  S
C168       C2726   1.497       .  S
C169       C3014   1.492       .  S
C170       C2886   1.495       .  S
O171       Cu179   1.978       .  S
O171        C181   1.273       .  A
O172       Cu179   1.973       .  S
O172        C182   1.275       .  A
O173       Cu179   1.996       .  S
O173        C183   1.279       .  A
O174       Cu179   1.999       .  S
O174        C184   1.277       .  A
O175       Cu180   2.037       .  S
O175        C184   1.280       .  A
O176       Cu180   2.031       .  S
O176        C183   1.278       .  A
O177       Cu180   2.025       .  S
O177        C182   1.278       .  A
O178       Cu180   2.025       .  S
O178        C181   1.279       .  A
Cu179      Cu180   2.366       .  S
C181       C2598   1.466       .  S
C182       C2854   1.494       .  S
C183       C2694   1.499       .  S
C184       C2502   1.490       .  S
C185       C2301   1.600       .  S
C185       C2333   1.626       .  S
C185       C2365   1.580       .  S
C185       C2406   1.603       .  S
C186       C2182   1.592       .  S
C186       C2214   1.591       .  S
C186       C2246   1.609       .  S
C186       C2269   1.601       .  S
C187       C2054   1.606       .  S
C187       C2077   1.606       .  S
C187       C2109   1.622       .  S
C187       C2141   1.573       .  S
C188       C1917   1.599       .  S
C188       C1949   1.604       .  S
C188       C1981   1.603       .  S
C188       C2013   1.585       .  S
O189       Cu197   1.988       .  S
O189        C199   1.274       .  A
O190       Cu197   1.988   1_655  S
O190        C200   1.274       .  A
O191       Cu197   2.005   1_655  S
O191        C201   1.279       .  A
O192       Cu197   2.003       .  S
O192        C202   1.279       .  A
O193       Cu198   2.028       .  S
O193        C202   1.278       .  A
O194       Cu198   2.022   1_655  S
O194        C201   1.278       .  A
O195       Cu198   2.041   1_655  S
O195        C200   1.281       .  A
O196       Cu198   2.036       .  S
O196        C199   1.280       .  A
Cu197      Cu198   2.369       .  S
C199       C1885   1.475       .  S
C200       C1926   1.482       .  S
C201       C2045   1.495       .  S
C202       C1853   1.490       .  S
O203       Cu211   2.028       .  S
O203        C213   1.277       .  A
O204       Cu211   2.022   1_655  S
O204        C214   1.278       .  A
O205       Cu211   2.058   1_655  S
O205        C215   1.285       .  A
O206       Cu211   2.045       .  S
O206        C216   1.281       .  A
O207       Cu212   1.986       .  S
O207        C216   1.276       .  A
O208       Cu212   1.991   1_655  S
O208        C215   1.273       .  A
O209       Cu212   2.004   1_655  S
O209        C214   1.277       .  A
O210       Cu212   2.008       .  S
O210        C213   1.280       .  A
Cu211      Cu212   2.361       .  S
C213       C1830   1.505       .  S
C214       C1958   1.476       .  S
C215       C2310   1.500       .  S
C216       C1789   1.500       .  S
O217       Cu225   2.017   1_655  S
O217        C227   1.277       .  A
O218       Cu225   2.021       .  S
O218        C228   1.279       .  A
O219       Cu225   2.013   1_655  S
O219        C229   1.279       .  A
O220       Cu225   2.007       .  S
O220        C230   1.279       .  A
O221       Cu226   2.037       .  S
O221        C230   1.280       .  A
O222       Cu226   2.033   1_655  S
O222        C229   1.279       .  A
O223       Cu226   2.027       .  S
O223        C228   1.279       .  A
O224       Cu226   2.027   1_655  S
O224        C227   1.280       .  A
Cu225      Cu226   2.359       .  S
C227       C2237   1.499       .  S
C228       C1766   1.494       .  S
C229       C2118   1.509       .  S
C230       C1725   1.501       .  S
O231       Cu239   2.055   1_655  S
O231        C241   1.285       .  A
O232       Cu239   2.055       .  S
O232        C242   1.284       .  A
O233       Cu239   2.012   1_655  S
O233        C243   1.276       .  A
O234       Cu239   2.014       .  S
O234        C244   1.277       .  A
O235       Cu240   2.001       .  S
O235        C244   1.277       .  A
O236       Cu240   2.007   1_655  S
O236        C243   1.277       .  A
O237       Cu240   1.978       .  S
O237        C242   1.272       .  A
O238       Cu240   1.973   1_655  S
O238        C241   1.269       .  A
Cu239      Cu240   2.365       .  S
C241       C2205   1.502       .  S
C242       C1702   1.493       .  S
C243       C2374   1.471       .  S
C244       C1661   1.479       .  S
O245       Cu253   2.026       .  S
O245        C255   1.277       .  A
O246       Cu253   2.013       .  S
O246        C256   1.275       .  A
O247       Cu253   2.054       .  S
O247        C257   1.284       .  A
O248       Cu253   2.057       .  S
O248        C258   1.283       .  A
O249       Cu254   1.982       .  S
O249        C258   1.274       .  A
O250       Cu254   1.989       .  S
O250        C257   1.273       .  A
O251       Cu254   2.017       .  S
O251        C256   1.281       .  A
O252       Cu254   2.016       .  S
O252        C255   1.281       .  A
Cu253      Cu254   2.366       .  S
C255       C2173   1.485       .  S
C256       C1990   1.503       .  S
C257       C2086   1.483       .  S
C258       C2342   1.491       .  S
C259       C1606   1.619       .  S
C259       C1629   1.617       .  S
C259       C1693   1.586       .  S
C259       C1821   1.613       .  S
C260       C1533   1.619       .  S
C260       C1565   1.606       .  S
C260       C1757   1.608       .  S
C260       C1894   1.588       .  S
C261       C1469   1.599       .  S
C261       C1501   1.600       .  S
C261       C1798   1.617       .  S
C261       C1862   1.601       .  S
C262       C1405   1.583       .  S
C262       C1446   1.598       .  S
C262       C1670   1.592       .  S
C262       C1734   1.621       .  S
O263       Cu271   2.049       .  S
O263        C273   1.282       .  A
O264       Cu271   2.045       .  S
O264        C274   1.284       .  A
O265       Cu271   2.020       .  S
O265        C275   1.277       .  A
O266       Cu271   2.013       .  S
O266        C276   1.277       .  A
O267       Cu272   2.004       .  S
O267        C276   1.277       .  A
O268       Cu272   2.008       .  S
O268        C275   1.278       .  A
O269       Cu272   1.999       .  S
O269        C274   1.273       .  A
O270       Cu272   2.000       .  S
O270        C273   1.275       .  A
Cu271      Cu272   2.370       .  S
C273       C1597   1.483       .  S
C274       C1542   1.508       .  S
C275       C1478   1.476       .  S
C276       C1414   1.470       .  S
C277       C1373   1.610       .  S
C277       C1437   1.607       .  S
C277       C3046   1.579       .  S
C277       C4061   1.606       .  S
C278       C1341   1.606       .  S
C278       C2278   1.605       .  S
C278       C3302   1.591       .  S
C278       C4317   1.618       .  S
C279       C1309   1.591       .  S
C279       C1574   1.630       .  S
C279       C2790   1.599       .  S
C279       C4454   1.612       .  S
C280       C1277   1.628       .  S
C280       C1638   1.608       .  S
C280       C3174   1.623       .  S
C280       C3942   1.612       .  S
C281       C1245   1.606       .  S
C281       C2397   1.593       .  S
C281       C3421   1.615       .  S
C281       C3814   1.600       .  S
C282       C1222   1.571       .  S
C282       C2150   1.609       .  S
C282       C2918   1.626       .  S
C282       C4189   1.600       .  S
C283       C1181   1.615       .  S
C283       C1510   1.584       .  S
C283       C2662   1.610       .  S
C283       C3558   1.611       .  S
C284       C1085   1.598       .  S
C284       C1126   1.586       .  S
C284       C1158   1.588       .  S
C284       C1382   1.598       .  S
C285        C989   1.577       .  S
C285       C1021   1.610       .  S
C285       C1053   1.596       .  S
C285       C1286   1.616       .  S
C286        C902   1.605       .  S
C286        C925   1.608       .  S
C286        C957   1.594       .  S
C286       C1350   1.581       .  S
C287        C797   1.595       .  S
C287        C829   1.589       .  S
C287        C870   1.593       .  S
C287       C1318   1.587       .  S
C288        C701   1.616       .  S
C288        C742   1.574       .  S
C288        C774   1.591       .  S
C288       C1213   1.609       .  S
O289       Cu297   2.032   1_455  S
O289        C299   1.282       .  A
O290       Cu297   2.039   1_565  S
O290        C300   1.283       .  A
O291       Cu297   2.014   1_465  S
O291        C301   1.277       .  A
O292       Cu297   2.022       .  S
O292        C302   1.278       .  A
O293       Cu298   2.021   1_545  S
O293        C302   1.279       .  A
O294       Cu298   2.019   1_455  S
O294        C301   1.278       .  A
O295       Cu298   1.980       .  S
O295        C300   1.271       .  A
O296       Cu298   1.974   1_445  S
O296        C299   1.270       .  A
Cu297      Cu298   2.363   1_545  S
C299       C1117   1.495       .  S
C300        C710   1.498       .  S
C301        C838   1.482       .  S
C302        C934   1.481       .  S
C303        C605   1.617       .  S
C303        C646   1.607       .  S
C303        C669   1.590       .  S
C303       C1190   1.599       .  S
O304       Cu312   2.031   1_544  S
O304        C314   1.279       .  A
O305       Cu312   2.037       .  S
O305        C315   1.279       .  A
O306       Cu312   2.046   1_545  S
O306        C316   1.282       .  A
O307       Cu312   2.044   1_554  S
O307        C317   1.281       .  A
O308       Cu313   2.008   1_554  S
O308        C317   1.276       .  A
O309       Cu313   2.014   1_545  S
O309        C316   1.277       .  A
O310       Cu313   2.014       .  S
O310        C315   1.280       .  A
O311       Cu313   1.998   1_544  S
O311        C314   1.278       .  A
Cu312      Cu313   2.366       .  S
C314       C1094   1.491       .  S
C315        C614   1.502       .  S
C316        C998   1.491       .  S
C317        C806   1.490       .  S
C318        C509   1.616       .  S
C318        C550   1.588       .  S
C318        C582   1.609       .  S
C318       C1254   1.585       .  S
O319       Cu327   2.038   1_654  S
O319        C329   1.279       .  A
O320       Cu327   2.039       .  S
O320        C330   1.281       .  A
O321       Cu327   2.031   1_655  S
O321        C331   1.281       .  A
O322       Cu327   2.034   1_554  S
O322        C332   1.280       .  A
O323       Cu328   1.999   1_554  S
O323        C332   1.275       .  A
O324       Cu328   1.997   1_655  S
O324        C331   1.274       .  A
O325       Cu328   1.977       .  S
O325        C330   1.275       .  A
O326       Cu328   1.975   1_654  S
O326        C329   1.276       .  A
Cu327      Cu328   2.362       .  S
C329        C893   1.501       .  S
C330       C1030   1.488       .  S
C331        C518   1.503       .  S
C332       C1149   1.477       .  S
C333        C381   1.602       .  S
C333        C413   1.589       .  S
C333        C445   1.622       .  S
C333        C486   1.588       .  S
O334       Cu342   2.041   1_654  S
O334        C344   1.282       .  A
O335       Cu342   2.039       .  S
O335        C345   1.280       .  A
O336       Cu342   2.020   1_554  S
O336        C346   1.278       .  A
O337       Cu342   2.021   1_655  S
O337        C347   1.278       .  A
O338       Cu343   2.006   1_656  S
O338        C347   1.277       .  A
O339       Cu343   1.993       .  S
O339        C346   1.276       .  A
O340       Cu343   1.981   1_556  S
O340        C345   1.276       .  A
O341       Cu343   1.990   1_655  S
O341        C344   1.276       .  A
Cu342      Cu343   2.371   1_556  S
C344        C765   1.482       .  S
C345        C678   1.499       .  S
C346        C861   1.472       .  S
C347        C422   1.475       .  S
O348       Cu356   2.025   1_545  S
O348        C358   1.282       .  A
O349       Cu356   2.025   1_554  S
O349        C359   1.279       .  A
O350       Cu356   2.017   1_544  S
O350        C360   1.279       .  A
O351       Cu356   2.017       .  S
O351        C361   1.277       .  A
O352       Cu357   2.006       .  S
O352        C361   1.277       .  A
O353       Cu357   2.006   1_544  S
O353        C360   1.276       .  A
O354       Cu357   1.984   1_554  S
O354        C359   1.274       .  A
O355       Cu357   1.984   1_545  S
O355        C358   1.272       .  A
Cu356      Cu357   2.369       .  S
C358        C541   1.495       .  S
C359        C733   1.467       .  S
C360        C966   1.490       .  S
C361        C390   1.479       .  S
O362       Cu370   2.022   1_545  S
O362        C372   1.279       .  A
O363       Cu370   2.022   1_455  S
O363        C373   1.280       .  A
O364       Cu370   1.994   1_445  S
O364        C374   1.273       .  A
O365       Cu370   1.989       .  S
O365        C375   1.275       .  A
O366       Cu371   2.050       .  S
O366        C375   1.283       .  A
O367       Cu371   2.048   1_445  S
O367        C374   1.284       .  A
O368       Cu371   2.012   1_455  S
O368        C373   1.276       .  A
O369       Cu371   2.010   1_545  S
O369        C372   1.276       .  A
Cu370      Cu371   2.370       .  S
C372        C573   1.475       .  S
C373        C637   1.478       .  S
C374       C1062   1.494       .  S
C375        C454   1.492       .  S
C376        C477   1.597       .  S
C376       C2022   1.605       .  S
C376       C2534   1.621       .  S
C376       C3677   1.586       .  S
C377        C378   1.388       .  A
C377        C382   1.408       .  A
C377        H387   1.086       .  S
C378        C383   1.479       .  S
C378        C379   1.400       .  A
C379        C384   1.518       .  S
C379        C380   1.405       .  A
C380        C381   1.433       .  A
C380        H385   1.073       .  S
C381        C382   1.454       .  A
C382        C386   1.523       .  S
C383        C388   1.418       .  A
C383        C392   1.400       .  A
C384        F400   1.382       .  S
C384        F401   1.383       .  S
C384        F402   1.384       .  S
C386        F397   1.386       .  S
C386        F398   1.383       .  S
C386        F399   1.363       .  S
C388        C393   1.518       .  S
C388        C389   1.407       .  A
C389        C390   1.405       .  A
C389        H394   1.084       .  S
C390        C391   1.416       .  A
C391        C395   1.516       .  S
C391        C392   1.402       .  A
C392        H396   1.084       .  S
C393        F406   1.384       .  S
C393        F407   1.383       .  S
C393        F408   1.382       .  S
C395        F403   1.381       .  S
C395        F404   1.384       .  S
C395        F405   1.385       .  S
C409        C410   1.396       .  A
C409        C414   1.420       .  A
C409        H419   1.085       .  S
C410        C415   1.495       .  S
C410        C411   1.406       .  A
C411        C416   1.524       .  S
C411        C412   1.403       .  A
C412        C413   1.427       .  A
C412        H417   1.078       .  S
C413        C414   1.461       .  A
C414        C418   1.533       .  S
C415        C420   1.422       .  A
C415        C424   1.404       .  A
C416        F432   1.382       .  S
C416        F433   1.383       .  S
C416        F434   1.384       .  S
C418        F429   1.383       .  S
C418        F430   1.362       .  S
C418        F431   1.385       .  S
C420        C425   1.516       .  S
C420        C421   1.409       .  A
C421        C422   1.399       .  A
C421        H426   1.083       .  S
C422        C423   1.415       .  A
C423        C427   1.518       .  S
C423        C424   1.408       .  A
C424        H428   1.083       .  S
C425        F438   1.385       .  S
C425        F439   1.382       .  S
C425        F440   1.378       .  S
C427        F435   1.384   1_655  S
C427        F436   1.383   1_655  S
C427        F437   1.383   1_655  S
C441        C442   1.391       .  A
C441        C446   1.417       .  A
C441        H451   1.082       .  S
C442        C447   1.491       .  S
C442        C443   1.405       .  A
C443        C448   1.523       .  S
C443        C444   1.404       .  A
C444        C445   1.434       .  A
C444        H449   1.075       .  S
C445        C446   1.458       .  A
C446        C450   1.528       .  S
C447        C452   1.415       .  A
C447        C456   1.405       .  A
C448        F464   1.381       .  S
C448        F465   1.384       .  S
C448        F466   1.383       .  S
C450        F461   1.374       .  S
C450        F462   1.385       .  S
C450        F463   1.370       .  S
C452        C457   1.521       .  S
C452        C453   1.404       .  A
C453        C454   1.406       .  A
C453        H458   1.083       .  S
C454        C455   1.421       .  A
C455        C459   1.517       .  S
C455        C456   1.415       .  A
C456        H460   1.083       .  S
C457        F470   1.384       .  S
C457        F471   1.382       .  S
C457        F472   1.381       .  S
C459        F467   1.385       .  S
C459        F468   1.382       .  S
C459        F469   1.383       .  S
C473        C474   1.399       .  A
C473        C478   1.420       .  A
C473        H483   1.080       .  S
C474        C479   1.505       .  S
C474        C475   1.408       .  A
C475        C480   1.519       .  S
C475        C476   1.401       .  A
C476        C477   1.426       .  A
C476        H481   1.082       .  S
C477        C478   1.468       .  A
C478        C482   1.546       .  S
C479        C484   1.414       .  A
C479        C488   1.402       .  A
C480        F496   1.384       .  S
C480        F497   1.381       .  S
C480        F498   1.382       .  S
C482        F493   1.386       .  S
C482        F494   1.377       .  S
C482        F495   1.364       .  S
C484        C489   1.520       .  S
C484        C485   1.406       .  A
C485        C486   1.428       .  A
C485        H490   1.080       .  S
C486        C487   1.448       .  A
C487        C491   1.527       .  S
C487        C488   1.413       .  A
C488        H492   1.082       .  S
C489        F502   1.384       .  S
C489        F503   1.381       .  S
C489        F504   1.383       .  S
C491        F499   1.386       .  S
C491        F500   1.378       .  S
C491        F501   1.366       .  S
C505        C506   1.395       .  A
C505        C510   1.413       .  A
C505        H515   1.082       .  S
C506        C511   1.488       .  S
C506        C507   1.408       .  A
C507        C512   1.522       .  S
C507        C508   1.405       .  A
C508        C509   1.428       .  A
C508        H513   1.078       .  S
C509        C510   1.445       .  A
C510        C514   1.518       .  S
C511        C516   1.414       .  A
C511        C520   1.397       .  A
C512        F528   1.382       .  S
C512        F529   1.382       .  S
C512        F530   1.385       .  S
C514        F525   1.385       .  S
C514        F526   1.371       .  S
C514        F527   1.379       .  S
C516        C521   1.520       .  S
C516        C517   1.412       .  A
C517        C518   1.413       .  A
C517        H522   1.082       .  S
C518        C519   1.430       .  A
C519        C523   1.523       .  S
C519        C520   1.406       .  A
C520        H524   1.083       .  S
C521        F534   1.384       .  S
C521        F535   1.381       .  S
C521        F536   1.382       .  S
C523        F531   1.385       .  S
C523        F532   1.383       .  S
C523        F533   1.384       .  S
C537        C538   1.397       .  A
C537        C542   1.405       .  A
C537        H547   1.083       .  S
C538        C543   1.481       .  S
C538        C539   1.411       .  A
C539        C544   1.519       .  S
C539        C540   1.406       .  A
C540        C541   1.410       .  A
C540        H545   1.082       .  S
C541        C542   1.430       .  A
C542        C546   1.523       .  S
C543        C548   1.403       .  A
C543        C552   1.388       .  A
C544        F560   1.382       .  S
C544        F561   1.382       .  S
C544        F562   1.384       .  S
C546        F557   1.383       .  S
C546        F558   1.385       .  S
C546        F559   1.381       .  S
C548        C553   1.523       .  S
C548        C549   1.404       .  A
C549        C550   1.427       .  A
C549        H554   1.065       .  S
C550        C551   1.456       .  A
C551        C555   1.524       .  S
C551        C552   1.407       .  A
C552        H556   1.084       .  S
C553        F566   1.385       .  S
C553        F567   1.382       .  S
C553        F568   1.382       .  S
C555        F563   1.378       .  S
C555        F564   1.368       .  S
C555        F565   1.386       .  S
C569        C570   1.401       .  A
C569        C574   1.406       .  A
C569        H579   1.085       .  S
C570        C575   1.485       .  S
C570        C571   1.414       .  A
C571        C576   1.520       .  S
C571        C572   1.408       .  A
C572        C573   1.404       .  A
C572        H577   1.083       .  S
C573        C574   1.420       .  A
C574        C578   1.518       .  S
C575        C580   1.401       .  A
C575        C584   1.397       .  A
C576        F592   1.383       .  S
C576        F593   1.381       .  S
C576        F594   1.385       .  S
C578        F589   1.383       .  S
C578        F590   1.384       .  S
C578        F591   1.380       .  S
C580        C585   1.528       .  S
C580        C581   1.396       .  A
C581        C582   1.436       .  A
C581        H586   1.077       .  S
C582        C583   1.455       .  A
C583        C587   1.527       .  S
C583        C584   1.421       .  A
C584        H588   1.085       .  S
C585        F598   1.385       .  S
C585        F599   1.382       .  S
C585        F600   1.381       .  S
C587        F595   1.380       .  S
C587        F596   1.366       .  S
C587        F597   1.386       .  S
C601        C602   1.398       .  A
C601        C606   1.417       .  A
C601        H611   1.083       .  S
C602        C607   1.496       .  S
C602        C603   1.409       .  A
C603        C608   1.519       .  S
C603        C604   1.411       .  A
C604        C605   1.428       .  A
C604        H609   1.078       .  S
C605        C606   1.444       .  A
C606        C610   1.523       .  S
C607        C612   1.417       .  A
C607        C616   1.403       .  A
C608        F624   1.382       .  S
C608        F625   1.381       .  S
C608        F626   1.385       .  S
C610        F621   1.385       .  S
C610        F622   1.376       .  S
C610        F623   1.369       .  S
C612        C617   1.516       .  S
C612        C613   1.405       .  A
C613        C614   1.406       .  A
C613        H618   1.083       .  S
C614        C615   1.426       .  A
C615        C619   1.516       .  S
C615        C616   1.416       .  A
C616        H620   1.083       .  S
C617        F630   1.375       .  S
C617        F631   1.385       .  S
C617        F632   1.383       .  S
C619        F627   1.385       .  S
C619        F628   1.383       .  S
C619        F629   1.376       .  S
C633        C634   1.407       .  A
C633        C638   1.412       .  A
C633        H643   1.083       .  S
C634        C639   1.492       .  S
C634        C635   1.421       .  A
C635        C640   1.520       .  S
C635        C636   1.408       .  A
C636        C637   1.399       .  A
C636        H641   1.084       .  S
C637        C638   1.414       .  A
C638        C642   1.518       .  S
C639        C644   1.407       .  A
C639        C648   1.382       .  A
C640        F656   1.381       .  S
C640        F657   1.381       .  S
C640        F658   1.384       .  S
C642        F653   1.384       .  S
C642        F654   1.383       .  S
C642        F655   1.383       .  S
C644        C649   1.518       .  S
C644        C645   1.420       .  A
C645        C646   1.433       .  A
C645        H650   1.073       .  S
C646        C647   1.455       .  A
C647        C651   1.522       .  S
C647        C648   1.401       .  A
C648        H652   1.087       .  S
C649        F662   1.384       .  S
C649        F663   1.382       .  S
C649        F664   1.382       .  S
C651        F659   1.384       .  S
C651        F660   1.364       .  S
C651        F661   1.378       .  S
C665        C666   1.393       .  A
C665        C670   1.412       .  A
C665        H675   1.085       .  S
C666        C671   1.489       .  S
C666        C667   1.404       .  A
C667        C672   1.522       .  S
C667        C668   1.406       .  A
C668        C669   1.426       .  A
C668        H673   1.060       .  S
C669        C670   1.453       .  A
C670        C674   1.528       .  S
C671        C676   1.412       .  A
C671        C680   1.403       .  A
C672        F688   1.382       .  S
C672        F689   1.382       .  S
C672        F690   1.385       .  S
C674        F685   1.380       .  S
C674        F686   1.386       .  S
C674        F687   1.376       .  S
C676        C681   1.517       .  S
C676        C677   1.400       .  A
C677        C678   1.409       .  A
C677        H682   1.081       .  S
C678        C679   1.425       .  A
C679        C683   1.518       .  S
C679        C680   1.414       .  A
C680        H684   1.083       .  S
C681        F694   1.385       .  S
C681        F695   1.382       .  S
C681        F696   1.382       .  S
C683        F691   1.385       .  S
C683        F692   1.383       .  S
C683        F693   1.383       .  S
C697        C698   1.393       .  A
C697        C702   1.415       .  A
C697        H707   1.083       .  S
C698        C703   1.487       .  S
C698        C699   1.405       .  A
C699        C704   1.518       .  S
C699        C700   1.404       .  A
C700        C701   1.431       .  A
C700        H705   1.082       .  S
C701        C702   1.450       .  A
C702        C706   1.517       .  S
C703        C708   1.412       .  A
C703        C712   1.394       .  A
C704        F720   1.381       .  S
C704        F721   1.382       .  S
C704        F722   1.383       .  S
C706        F717   1.378       .  S
C706        F718   1.386       .  S
C706        F719   1.373       .  S
C708        C713   1.517       .  S
C708        C709   1.412       .  A
C709        C710   1.412       .  A
C709        H714   1.082       .  S
C710        C711   1.430       .  A
C711        C715   1.525       .  S
C711        C712   1.402       .  A
C712        H716   1.077       .  S
C713        F726   1.384       .  S
C713        F727   1.383       .  S
C713        F728   1.383       .  S
C715        F723   1.383       .  S
C715        F724   1.378       .  S
C715        F725   1.385       .  S
C729        C730   1.402       .  A
C729        C734   1.406       .  A
C729        H739   1.083       .  S
C730        C735   1.479       .  S
C730        C731   1.415       .  A
C731        C736   1.516       .  S
C731        C732   1.404       .  A
C732        C733   1.400       .  A
C732        H737   1.083       .  S
C733        C734   1.414       .  A
C734        C738   1.516       .  S
C735        C740   1.407       .  A
C735        C744   1.391       .  A
C736        F752   1.382       .  S
C736        F753   1.382       .  S
C736        F754   1.385       .  S
C738        F749   1.385       .  S
C738        F750   1.382       .  S
C738        F751   1.383       .  S
C740        C745   1.520       .  S
C740        C741   1.406       .  A
C741        C742   1.423       .  A
C741        H746   1.077       .  S
C742        C743   1.452       .  A
C743        C747   1.530       .  S
C743        C744   1.404       .  A
C744        H748   1.086       .  S
C745        F758   1.383       .  S
C745        F759   1.383       .  S
C745        F760   1.382       .  S
C747        F755   1.367       .  S
C747        F756   1.376       .  S
C747        F757   1.384       .  S
C761        C762   1.399       .  A
C761        C766   1.400       .  A
C761        H771   1.083       .  S
C762        C767   1.488       .  S
C762        C763   1.420       .  A
C763        C768   1.519       .  S
C763        C764   1.414       .  A
C764        C765   1.404       .  A
C764        H769   1.083       .  S
C765        C766   1.419       .  A
C766        C770   1.517       .  S
C767        C772   1.411       .  A
C767        C776   1.391       .  A
C768        F784   1.381       .  S
C768        F785   1.381       .  S
C768        F786   1.385       .  S
C770        F781   1.384       .  S
C770        F782   1.383       .  S
C770        F783   1.381   1_655  S
C772        C777   1.517       .  S
C772        C773   1.416       .  A
C773        C774   1.421       .  A
C773        H778   1.078       .  S
C774        C775   1.456       .  A
C775        C779   1.534       .  S
C775        C776   1.404       .  A
C776        H780   1.086       .  S
C777        F790   1.384       .  S
C777        F791   1.382       .  S
C777        F792   1.381       .  S
C779        F787   1.386       .  S
C779        F788   1.380       .  S
C779        F789   1.366       .  S
C793        C794   1.395       .  A
C793        C798   1.419       .  A
C793        H803   1.082       .  S
C794        C799   1.497       .  S
C794        C795   1.405       .  A
C795        C800   1.520       .  S
C795        C796   1.405       .  A
C796        C797   1.422       .  A
C796        H801   1.069       .  S
C797        C798   1.457       .  A
C798        C802   1.529       .  S
C799        C804   1.420       .  A
C799        C808   1.402       .  A
C800        F816   1.382       .  S
C800        F817   1.383       .  S
C800        F818   1.385       .  S
C802        F813   1.386       .  S
C802        F814   1.373       .  S
C802        F815   1.377       .  S
C804        C809   1.519       .  S
C804        C805   1.414       .  A
C805        C806   1.404       .  A
C805        H810   1.083       .  S
C806        C807   1.420       .  A
C807        C811   1.519       .  S
C807        C808   1.408       .  A
C808        H812   1.083       .  S
C809        F822   1.384       .  S
C809        F823   1.381       .  S
C809        F824   1.383       .  S
C811        F819   1.385       .  S
C811        F820   1.381       .  S
C811        F821   1.384       .  S
C825        C826   1.398       .  A
C825        C830   1.421       .  A
C825        H835   1.085       .  S
C826        C831   1.490       .  S
C826        C827   1.403       .  A
C827        C832   1.525       .  S
C827        C828   1.399       .  A
C828        C829   1.424       .  A
C828        H833   1.070       .  S
C829        C830   1.454       .  A
C830        C834   1.531       .  S
C831        C836   1.417       .  A
C831        C840   1.403       .  A
C832        F848   1.382       .  S
C832        F849   1.383       .  S
C832        F850   1.385       .  S
C834        F845   1.385       .  S
C834        F846   1.369       .  S
C834        F847   1.382       .  S
C836        C841   1.517       .  S
C836        C837   1.409       .  A
C837        C838   1.403       .  A
C837        H842   1.083       .  S
C838        C839   1.418       .  A
C839        C843   1.517       .  S
C839        C840   1.408       .  A
C840        H844   1.083       .  S
C841        F854   1.385       .  S
C841        F855   1.382       .  S
C841        F856   1.380       .  S
C843        F851   1.385       .  S
C843        F852   1.383       .  S
C843        F853   1.382       .  S
C857        C858   1.403       .  A
C857        C862   1.402       .  A
C857        H867   1.082       .  S
C858        C863   1.483       .  S
C858        C859   1.417       .  A
C859        C864   1.517       .  S
C859        C860   1.408       .  A
C860        C861   1.403       .  A
C860        H865   1.084       .  S
C861        C862   1.414       .  A
C862        C866   1.519       .  S
C863        C868   1.406       .  A
C863        C872   1.392       .  A
C864        F880   1.382       .  S
C864        F881   1.382       .  S
C864        F882   1.385       .  S
C866        F877   1.385       .  S
C866        F878   1.382       .  S
C866        F879   1.383       .  S
C868        C873   1.518       .  S
C868        C869   1.411       .  A
C869        C870   1.421       .  A
C869        H874   1.071       .  S
C870        C871   1.452       .  A
C871        C875   1.528       .  S
C871        C872   1.405       .  A
C872        H876   1.084       .  S
C873        F886   1.384       .  S
C873        F887   1.381       .  S
C873        F888   1.382       .  S
C875        F883   1.382       .  S
C875        F884   1.370       .  S
C875        F885   1.385       .  S
C889        C890   1.408       .  A
C889        C894   1.417       .  A
C889        H899   1.083       .  S
C890        C895   1.494       .  S
C890        C891   1.423       .  A
C891        C896   1.523       .  S
C891        C892   1.395       .  A
C892        C893   1.405       .  A
C892        H897   1.084       .  S
C893        C894   1.424       .  A
C894        C898   1.518       .  S
C895        C900   1.408       .  A
C895        C904   1.404       .  A
C896        F912   1.370       .  S
C896        F913   1.384       .  S
C896        F914   1.384       .  S
C898        F909   1.385       .  S
C898        F910   1.383       .  S
C898        F911   1.383       .  S
C900        C905   1.516       .  S
C900        C901   1.402       .  A
C901        C902   1.429       .  A
C901        H906   1.081       .  S
C902        C903   1.439       .  A
C903        C907   1.522       .  S
C903        C904   1.420       .  A
C904        H908   1.083       .  S
C905        F918   1.383       .  S
C905        F919   1.383       .  S
C905        F920   1.380       .  S
C907        F915   1.380       .  S
C907        F916   1.367       .  S
C907        F917   1.385       .  S
C921        C922   1.398       .  A
C921        C926   1.420       .  A
C921        H931   1.085       .  S
C922        C927   1.491       .  S
C922        C923   1.406       .  A
C923        C928   1.525       .  S
C923        C924   1.399       .  A
C924        C925   1.430       .  A
C924        H929   1.078       .  S
C925        C926   1.451       .  A
C926        C930   1.528       .  S
C927        C932   1.416       .  A
C927        C936   1.402       .  A
C928        F944   1.382       .  S
C928        F945   1.382       .  S
C928        F946   1.384       .  S
C930        F941   1.386       .  S
C930        F942   1.372       .  S
C930        F943   1.382       .  S
C932        C937   1.515       .  S
C932        C933   1.411       .  A
C933        C934   1.403       .  A
C933        H938   1.083       .  S
C934        C935   1.414       .  A
C935        C939   1.512       .  S
C935        C936   1.407       .  A
C936        H940   1.084       .  S
C937        F950   1.384       .  S
C937        F951   1.383       .  S
C937        F952   1.379       .  S
C939        F947   1.384       .  S
C939        F948   1.384       .  S
C939        F949   1.378       .  S
C953        C954   1.390       .  A
C953        C958   1.413       .  A
C953        H963   1.083       .  S
C954        C959   1.486       .  S
C954        C955   1.405       .  A
C955        C960   1.519       .  S
C955        C956   1.404       .  A
C956        C957   1.426       .  A
C956        H961   1.075       .  S
C957        C958   1.454       .  A
C958        C962   1.519       .  S
C959        C964   1.413       .  A
C959        C968   1.402       .  A
C960        F976   1.383       .  S
C960        F977   1.382       .  S
C960        F978   1.383       .  S
C962        F973   1.386       .  S
C962        F974   1.368       .  S
C962        F975   1.373       .  S
C964        C969   1.518       .  S
C964        C965   1.407       .  A
C965        C966   1.408       .  A
C965        H970   1.083       .  S
C966        C967   1.423       .  A
C967        C971   1.520       .  S
C967        C968   1.409       .  A
C968        H972   1.084       .  S
C969        F982   1.384       .  S
C969        F983   1.382       .  S
C969        F984   1.383       .  S
C971        F979   1.385       .  S
C971        F980   1.383       .  S
C971        F981   1.383   1_545  S
C985        C986   1.388       .  A
C985        C990   1.403       .  A
C985        H995   1.086       .  S
C986        C991   1.495       .  S
C986        C987   1.411       .  A
C987        C992   1.517       .  S
C987        C988   1.418       .  A
C988        C989   1.422       .  A
C988        H993   1.074       .  S
C989        C990   1.454       .  A
C990        C994   1.532       .  S
C991        C996   1.420       .  A
C991       C1000   1.403       .  A
C992       F1008   1.382       .  S
C992       F1009   1.382       .  S
C992       F1010   1.385       .  S
C994       F1005   1.383       .  S
C994       F1006   1.385       .  S
C994       F1007   1.368       .  S
C996       C1001   1.519       .  S
C996        C997   1.412       .  A
C997        C998   1.404       .  A
C997       H1002   1.083       .  S
C998        C999   1.416       .  A
C999       C1003   1.511       .  S
C999       C1000   1.411       .  A
C1000      H1004   1.083       .  S
C1001      F1014   1.384       .  S
C1001      F1015   1.382       .  S
C1001      F1016   1.382       .  S
C1003      F1011   1.384       .  S
C1003      F1012   1.383       .  S
C1003      F1013   1.382       .  S
C1017      C1018   1.397       .  A
C1017      C1022   1.407       .  A
C1017      H1027   1.085       .  S
C1018      C1023   1.494       .  S
C1018      C1019   1.412       .  A
C1019      C1024   1.520       .  S
C1019      C1020   1.408       .  A
C1020      C1021   1.428       .  A
C1020      H1025   1.066       .  S
C1021      C1022   1.444       .  A
C1022      C1026   1.521       .  S
C1023      C1028   1.423       .  A
C1023      C1032   1.410       .  A
C1024      F1040   1.381       .  S
C1024      F1041   1.383       .  S
C1024      F1042   1.384       .  S
C1026      F1037   1.382       .  S
C1026      F1038   1.385       .  S
C1026      F1039   1.373       .  S
C1028      C1033   1.520       .  S
C1028      C1029   1.400       .  A
C1029      C1030   1.403       .  A
C1029      H1034   1.085       .  S
C1030      C1031   1.417       .  A
C1031      C1035   1.517       .  S
C1031      C1032   1.413       .  A
C1032      H1036   1.083       .  S
C1033      F1046   1.383       .  S
C1033      F1047   1.384       .  S
C1033      F1048   1.372       .  S
C1035      F1043   1.384       .  S
C1035      F1044   1.384       .  S
C1035      F1045   1.382       .  S
C1049      C1050   1.389       .  A
C1049      C1054   1.405       .  A
C1049      H1059   1.086       .  S
C1050      C1055   1.489       .  S
C1050      C1051   1.410       .  A
C1051      C1056   1.515       .  S
C1051      C1052   1.416       .  A
C1052      C1053   1.417       .  A
C1052      H1057   1.081       .  S
C1053      C1054   1.457       .  A
C1054      C1058   1.530       .  S
C1055      C1060   1.419       .  A
C1055      C1064   1.402       .  A
C1056      F1072   1.383       .  S
C1056      F1073   1.382       .  S
C1056      F1074   1.384       .  S
C1058      F1069   1.385       .  S
C1058      F1070   1.382       .  S
C1058      F1071   1.364       .  S
C1060      C1065   1.518       .  S
C1060      C1061   1.410       .  A
C1061      C1062   1.405       .  A
C1061      H1066   1.084       .  S
C1062      C1063   1.426       .  A
C1063      C1067   1.522       .  S
C1063      C1064   1.409       .  A
C1064      H1068   1.084       .  S
C1065      F1078   1.383       .  S
C1065      F1079   1.383       .  S
C1065      F1080   1.382       .  S
C1067      F1075   1.383       .  S
C1067      F1076   1.381       .  S
C1067      F1077   1.385       .  S
C1081      C1082   1.391       .  A
C1081      C1086   1.403       .  A
C1081      H1091   1.086       .  S
C1082      C1087   1.487       .  S
C1082      C1083   1.412       .  A
C1083      C1088   1.515       .  S
C1083      C1084   1.417       .  A
C1084      C1085   1.418       .  A
C1084      H1089   1.075       .  S
C1085      C1086   1.447       .  A
C1086      C1090   1.525       .  S
C1087      C1092   1.419       .  A
C1087      C1096   1.405       .  A
C1088      F1104   1.383       .  S
C1088      F1105   1.383       .  S
C1088      F1106   1.384       .  S
C1090      F1101   1.381       .  S
C1090      F1102   1.385       .  S
C1090      F1103   1.369       .  S
C1092      C1097   1.517       .  S
C1092      C1093   1.400       .  A
C1093      C1094   1.403       .  A
C1093      H1098   1.084       .  S
C1094      C1095   1.421       .  A
C1095      C1099   1.517       .  S
C1095      C1096   1.414       .  A
C1096      H1100   1.083       .  S
C1097      F1110   1.384       .  S
C1097      F1111   1.383       .  S
C1097      F1112   1.374       .  S
C1099      F1107   1.384       .  S
C1099      F1108   1.383       .  S
C1099      F1109   1.385       .  S
C1113      C1114   1.393       .  A
C1113      C1118   1.401       .  A
C1113      H1123   1.082       .  S
C1114      C1119   1.478       .  S
C1114      C1115   1.411       .  A
C1115      C1120   1.519       .  S
C1115      C1116   1.408       .  A
C1116      C1117   1.411       .  A
C1116      H1121   1.082       .  S
C1117      C1118   1.432       .  A
C1118      C1122   1.524       .  S
C1119      C1124   1.404       .  A
C1119      C1128   1.391       .  A
C1120      F1136   1.382       .  S
C1120      F1137   1.382       .  S
C1120      F1138   1.385       .  S
C1122      F1133   1.385       .  S
C1122      F1134   1.383       .  S
C1122      F1135   1.382       .  S
C1124      C1129   1.523       .  S
C1124      C1125   1.402       .  A
C1125      C1126   1.424       .  A
C1125      H1130   1.063       .  S
C1126      C1127   1.450       .  A
C1127      C1131   1.525       .  S
C1127      C1128   1.406       .  A
C1128      H1132   1.085       .  S
C1129      F1142   1.385       .  S
C1129      F1143   1.382       .  S
C1129      F1144   1.382       .  S
C1131      F1139   1.386       .  S
C1131      F1140   1.382       .  S
C1131      F1141   1.373       .  S
C1145      C1146   1.406       .  A
C1145      C1150   1.411       .  A
C1145      H1155   1.083       .  S
C1146      C1151   1.491       .  S
C1146      C1147   1.421       .  A
C1147      C1152   1.515       .  S
C1147      C1148   1.406       .  A
C1148      C1149   1.399       .  A
C1148      H1153   1.085       .  S
C1149      C1150   1.415       .  A
C1150      C1154   1.517       .  S
C1151      C1156   1.411       .  A
C1151      C1160   1.388       .  A
C1152      F1168   1.383       .  S
C1152      F1169   1.381       .  S
C1152      F1170   1.384       .  S
C1154      F1165   1.384       .  S
C1154      F1166   1.383       .  S
C1154      F1167   1.383       .  S
C1156      C1161   1.517       .  S
C1156      C1157   1.414       .  A
C1157      C1158   1.427       .  A
C1157      H1162   1.076       .  S
C1158      C1159   1.455       .  A
C1159      C1163   1.531       .  S
C1159      C1160   1.404       .  A
C1160      H1164   1.086       .  S
C1161      F1174   1.383       .  S
C1161      F1175   1.383       .  S
C1161      F1176   1.382       .  S
C1163      F1171   1.382       .  S
C1163      F1172   1.363       .  S
C1163      F1173   1.386       .  S
C1177      C1178   1.395       .  A
C1177      C1182   1.419       .  A
C1177      H1187   1.086       .  S
C1178      C1183   1.505       .  S
C1178      C1179   1.411       .  A
C1179      C1184   1.520       .  S
C1179      C1180   1.411       .  A
C1180      C1181   1.428       .  A
C1180      H1185   1.076       .  S
C1181      C1182   1.463       .  A
C1182      C1186   1.533       .  S
C1183      C1188   1.408       .  A
C1183      C1192   1.393       .  A
C1184      F1200   1.379       .  S
C1184      F1201   1.384       .  S
C1184      F1202   1.383       .  S
C1186      F1197   1.387       .  S
C1186      F1198   1.382       .  S
C1186      F1199   1.366       .  S
C1188      C1193   1.519       .  S
C1188      C1189   1.413       .  A
C1189      C1190   1.428       .  A
C1189      H1194   1.082       .  S
C1190      C1191   1.468       .  A
C1191      C1195   1.547       .  S
C1191      C1192   1.422       .  A
C1192      H1196   1.082       .  S
C1193      F1206   1.385       .  S
C1193      F1207   1.383       .  S
C1193      F1208   1.381       .  S
C1195      F1203   1.386       .  S
C1195      F1204   1.371       .  S
C1195      F1205   1.369       .  S
C1209      C1210   1.392       .  A
C1209      C1214   1.415       .  A
C1209      H1219   1.083       .  S
C1210      C1215   1.489       .  S
C1210      C1211   1.402       .  A
C1211      C1216   1.523       .  S
C1211      C1212   1.406       .  A
C1212      C1213   1.433       .  A
C1212      H1217   1.074       .  S
C1213      C1214   1.457       .  A
C1214      C1218   1.534       .  S
C1215      C1220   1.407       .  A
C1215      C1224   1.393       .  A
C1216      F1232   1.383       .  S
C1216      F1233   1.381       .  S
C1216      F1234   1.385       .  S
C1218      F1229   1.373       .  S
C1218      F1230   1.373       .  S
C1218      F1231   1.386       .  S
C1220      C1225   1.521       .  S
C1220      C1221   1.409       .  A
C1221      C1222   1.422       .  A
C1221      H1226   1.075       .  S
C1222      C1223   1.455       .  A
C1223      C1227   1.535       .  S
C1223      C1224   1.411       .  A
C1224      H1228   1.083       .  S
C1225      F1238   1.385       .  S
C1225      F1239   1.383       .  S
C1225      F1240   1.381       .  S
C1227      F1235   1.386       .  S
C1227      F1236   1.375       .  S
C1227      F1237   1.379       .  S
C1241      C1242   1.399       .  A
C1241      C1246   1.420       .  A
C1241      H1251   1.078       .  S
C1242      C1247   1.511       .  S
C1242      C1243   1.416       .  A
C1243      C1248   1.521       .  S
C1243      C1244   1.405       .  A
C1244      C1245   1.420       .  A
C1244      H1249   1.075       .  S
C1245      C1246   1.455       .  A
C1246      C1250   1.532       .  S
C1247      C1252   1.415       .  A
C1247      C1256   1.393       .  A
C1248      F1264   1.383       .  S
C1248      F1265   1.383       .  S
C1248      F1266   1.385       .  S
C1250      F1261   1.379       .  S
C1250      F1262   1.386       .  S
C1250      F1263   1.369       .  S
C1252      C1257   1.525       .  S
C1252      C1253   1.414       .  A
C1253      C1254   1.427       .  A
C1253      H1258   1.081       .  S
C1254      C1255   1.466       .  A
C1255      C1259   1.543       .  S
C1255      C1256   1.414       .  A
C1256      H1260   1.084       .  S
C1257      F1270   1.383       .  S
C1257      F1271   1.379       .  S
C1257      F1272   1.384       .  S
C1259      F1267   1.386       .  S
C1259      F1268   1.362       .  S
C1259      F1269   1.385       .  S
C1273      C1274   1.392       .  A
C1273      C1278   1.417       .  A
C1273      H1283   1.085       .  S
C1274      C1279   1.504       .  S
C1274      C1275   1.405       .  A
C1275      C1280   1.523       .  S
C1275      C1276   1.415       .  A
C1276      C1277   1.438       .  A
C1276      H1281   1.072       .  S
C1277      C1278   1.458       .  A
C1278      C1282   1.522       .  S
C1279      C1284   1.405       .  A
C1279      C1288   1.395       .  A
C1280      F1296   1.383       .  S
C1280      F1297   1.382       .  S
C1280      F1298   1.385       .  S
C1282      F1293   1.384       .  S
C1282      F1294   1.384       .  S
C1282      F1295   1.363       .  S
C1284      C1289   1.522       .  S
C1284      C1285   1.412       .  A
C1285      C1286   1.434       .  A
C1285      H1290   1.073       .  S
C1286      C1287   1.454       .  A
C1287      C1291   1.525       .  S
C1287      C1288   1.422       .  A
C1288      H1292   1.084       .  S
C1289      F1302   1.385       .  S
C1289      F1303   1.383       .  S
C1289      F1304   1.382       .  S
C1291      F1299   1.386       .  S
C1291      F1300   1.373       .  S
C1291      F1301   1.377       .  S
C1305      C1306   1.392       .  A
C1305      C1310   1.414       .  A
C1305      H1315   1.086       .  S
C1306      C1311   1.498       .  S
C1306      C1307   1.409       .  A
C1307      C1312   1.521       .  S
C1307      C1308   1.415       .  A
C1308      C1309   1.427       .  A
C1308      H1313   1.079       .  S
C1309      C1310   1.463       .  A
C1310      C1314   1.535       .  S
C1311      C1316   1.411       .  A
C1311      C1320   1.395       .  A
C1312      F1328   1.383       .  S
C1312      F1329   1.379       .  S
C1312      F1330   1.384       .  S
C1314      F1325   1.387       .  S
C1314      F1326   1.383       .  S
C1314      F1327   1.363       .  S
C1316      C1321   1.521       .  S
C1316      C1317   1.408       .  A
C1317      C1318   1.422       .  A
C1317      H1322   1.071       .  S
C1318      C1319   1.459       .  A
C1319      C1323   1.540       .  S
C1319      C1320   1.416       .  A
C1320      H1324   1.084       .  S
C1321      F1334   1.384       .  S
C1321      F1335   1.382       .  S
C1321      F1336   1.381       .  S
C1323      F1331   1.386       .  S
C1323      F1332   1.380       .  S
C1323      F1333   1.374       .  S
C1337      C1338   1.393       .  A
C1337      C1342   1.419       .  A
C1337      H1347   1.086       .  S
C1338      C1343   1.498       .  S
C1338      C1339   1.408       .  A
C1339      C1344   1.519       .  S
C1339      C1340   1.407       .  A
C1340      C1341   1.432       .  A
C1340      H1345   1.082       .  S
C1341      C1342   1.464       .  A
C1342      C1346   1.536       .  S
C1343      C1348   1.405       .  A
C1343      C1352   1.394       .  A
C1344      F1360   1.384       .  S
C1344      F1361   1.381       .  S
C1344      F1362   1.383       .  S
C1346      F1357   1.387       .  S
C1346      F1358   1.360       .  S
C1346      F1359   1.381       .  S
C1348      C1353   1.518       .  S
C1348      C1349   1.412       .  A
C1349      C1350   1.425       .  A
C1349      H1354   1.080       .  S
C1350      C1351   1.461       .  A
C1351      C1355   1.540       .  S
C1351      C1352   1.417       .  A
C1352      H1356   1.085       .  S
C1353      F1366   1.385       .  S
C1353      F1367   1.383       .  S
C1353      F1368   1.382       .  S
C1355      F1363   1.387       .  S
C1355      F1364   1.382       .  S
C1355      F1365   1.373       .  S
C1369      C1370   1.393       .  A
C1369      C1374   1.412       .  A
C1369      H1379   1.087       .  S
C1370      C1375   1.491       .  S
C1370      C1371   1.403       .  A
C1371      C1376   1.518       .  S
C1371      C1372   1.409       .  A
C1372      C1373   1.431       .  A
C1372      H1377   1.080       .  S
C1373      C1374   1.460       .  A
C1374      C1378   1.540       .  S
C1375      C1380   1.408       .  A
C1375      C1384   1.390       .  A
C1376      F1392   1.383       .  S
C1376      F1393   1.383       .  S
C1376      F1394   1.384       .  S
C1378      F1389   1.380       .  S
C1378      F1390   1.387       .  S
C1378      F1391   1.368       .  S
C1380      C1385   1.518       .  S
C1380      C1381   1.409       .  A
C1381      C1382   1.421       .  A
C1381      H1386   1.072       .  S
C1382      C1383   1.462       .  A
C1383      C1387   1.539       .  S
C1383      C1384   1.411       .  A
C1384      H1388   1.084       .  S
C1385      F1398   1.384       .  S
C1385      F1399   1.383       .  S
C1385      F1400   1.382       .  S
C1387      F1395   1.374       .  S
C1387      F1396   1.375       .  S
C1387      F1397   1.387       .  S
C1401      C1402   1.393       .  A
C1401      C1406   1.418       .  A
C1401      H1411   1.086       .  S
C1402      C1407   1.483       .  S
C1402      C1403   1.400       .  A
C1403      C1408   1.524       .  S
C1403      C1404   1.398       .  A
C1404      C1405   1.433       .  A
C1404      H1409   1.080       .  S
C1405      C1406   1.461       .  A
C1406      C1410   1.533       .  S
C1407      C1412   1.417       .  A
C1407      C1416   1.402       .  A
C1408      F1424   1.382       .  S
C1408      F1425   1.382       .  S
C1408      F1426   1.384       .  S
C1410      F1421   1.385       .  S
C1410      F1422   1.360       .  S
C1410      F1423   1.385       .  S
C1412      C1417   1.519       .  S
C1412      C1413   1.408       .  A
C1413      C1414   1.402       .  A
C1413      H1418   1.083       .  S
C1414      C1415   1.413       .  A
C1415      C1419   1.517       .  S
C1415      C1416   1.405       .  A
C1416      H1420   1.083       .  S
C1417      F1430   1.384       .  S
C1417      F1431   1.382       .  S
C1417      F1432   1.381       .  S
C1419      F1427   1.382       .  S
C1419      F1428   1.384       .  S
C1419      F1429   1.383       .  S
C1433      C1434   1.390       .  A
C1433      C1438   1.408       .  A
C1433      H1443   1.086       .  S
C1434      C1439   1.486       .  S
C1434      C1435   1.404       .  A
C1435      C1440   1.523       .  S
C1435      C1436   1.407       .  A
C1436      C1437   1.430       .  A
C1436      H1441   1.072       .  S
C1437      C1438   1.453       .  A
C1438      C1442   1.521       .  S
C1439      C1444   1.402       .  A
C1439      C1448   1.389       .  A
C1440      F1456   1.383       .  S
C1440      F1457   1.381       .  S
C1440      F1458   1.385       .  S
C1442      F1453   1.383       .  S
C1442      F1454   1.386       .  S
C1442      F1455   1.361       .  S
C1444      C1449   1.521       .  S
C1444      C1445   1.408       .  A
C1445      C1446   1.431       .  A
C1445      H1450   1.074       .  S
C1446      C1447   1.458       .  A
C1447      C1451   1.526       .  S
C1447      C1448   1.412       .  A
C1448      H1452   1.083       .  S
C1449      F1462   1.384       .  S
C1449      F1463   1.383       .  S
C1449      F1464   1.381       .  S
C1451      F1459   1.378       .  S
C1451      F1460   1.365       .  S
C1451      F1461   1.386       .  S
C1465      C1466   1.384       .  A
C1465      C1470   1.403       .  A
C1465      H1475   1.087       .  S
C1466      C1471   1.489       .  S
C1466      C1467   1.405       .  A
C1467      C1472   1.517       .  S
C1467      C1468   1.415       .  A
C1468      C1469   1.430       .  A
C1468      H1473   1.077       .  S
C1469      C1470   1.454       .  A
C1470      C1474   1.523       .  S
C1471      C1476   1.418       .  A
C1471      C1480   1.405       .  A
C1472      F1488   1.383       .  S
C1472      F1489   1.382       .  S
C1472      F1490   1.384       .  S
C1474      F1485   1.379       .  S
C1474      F1486   1.384       .  S
C1474      F1487   1.362       .  S
C1476      C1481   1.517       .  S
C1476      C1477   1.403       .  A
C1477      C1478   1.397       .  A
C1477      H1482   1.079       .  S
C1478      C1479   1.416       .  A
C1479      C1483   1.516       .  S
C1479      C1480   1.411       .  A
C1480      H1484   1.083       .  S
C1481      F1494   1.385       .  S
C1481      F1495   1.382       .  S
C1481      F1496   1.382       .  S
C1483      F1491   1.383       .  S
C1483      F1492   1.383       .  S
C1483      F1493   1.385       .  S
C1497      C1498   1.400       .  A
C1497      C1502   1.416       .  A
C1497      H1507   1.082       .  S
C1498      C1503   1.519       .  S
C1498      C1499   1.417       .  A
C1499      C1504   1.520       .  S
C1499      C1500   1.413       .  A
C1500      C1501   1.424       .  A
C1500      H1505   1.077       .  S
C1501      C1502   1.454       .  A
C1502      C1506   1.531       .  S
C1503      C1508   1.418       .  A
C1503      C1512   1.403       .  A
C1504      F1520   1.382       .  S
C1504      F1521   1.383       .  S
C1504      F1522   1.384       .  S
C1506      F1517   1.386       .  S
C1506      F1518   1.381       .  S
C1506      F1519   1.372       .  S
C1508      C1513   1.522       .  S
C1508      C1509   1.412       .  A
C1509      C1510   1.418       .  A
C1509      H1514   1.074       .  S
C1510      C1511   1.450       .  A
C1511      C1515   1.532       .  S
C1511      C1512   1.419       .  A
C1512      H1516   1.080       .  S
C1513      F1526   1.384       .  S
C1513      F1527   1.382       .  S
C1513      F1528   1.383       .  S
C1515      F1523   1.385       .  S
C1515      F1524   1.374       .  S
C1515      F1525   1.379       .  S
C1529      C1530   1.393       .  A
C1529      C1534   1.409       .  A
C1529      H1539   1.085       .  S
C1530      C1535   1.491       .  S
C1530      C1531   1.408       .  A
C1531      C1536   1.518       .  S
C1531      C1532   1.412       .  A
C1532      C1533   1.421       .  A
C1532      H1537   1.067       .  S
C1533      C1534   1.451       .  A
C1534      C1538   1.523       .  S
C1535      C1540   1.418       .  A
C1535      C1544   1.399       .  A
C1536      F1552   1.383       .  S
C1536      F1553   1.381       .  S
C1536      F1554   1.385       .  S
C1538      F1549   1.385       .  S
C1538      F1550   1.383       .  S
C1538      F1551   1.370       .  S
C1540      C1545   1.518       .  S
C1540      C1541   1.411       .  A
C1541      C1542   1.411       .  A
C1541      H1546   1.084       .  S
C1542      C1543   1.432       .  A
C1543      C1547   1.523       .  S
C1543      C1544   1.409       .  A
C1544      H1548   1.083       .  S
C1545      F1558   1.383       .  S
C1545      F1559   1.383       .  S
C1545      F1560   1.381       .  S
C1547      F1555   1.384       .  S
C1547      F1556   1.383       .  S
C1547      F1557   1.385       .  S
C1561      C1562   1.395       .  A
C1561      C1566   1.421       .  A
C1561      H1571   1.084       .  S
C1562      C1567   1.507       .  S
C1562      C1563   1.406       .  A
C1563      C1568   1.522       .  S
C1563      C1564   1.413       .  A
C1564      C1565   1.432       .  A
C1564      H1569   1.073       .  S
C1565      C1566   1.458       .  A
C1566      C1570   1.529       .  S
C1567      C1572   1.405       .  A
C1567      C1576   1.394       .  A
C1568      F1584   1.382       .  S
C1568      F1585   1.382       .  S
C1568      F1586   1.384       .  S
C1570      F1581   1.382       .  S
C1570      F1582   1.386       .  S
C1570      F1583   1.364       .  S
C1572      C1577   1.522       .  S
C1572      C1573   1.414       .  A
C1573      C1574   1.436       .  A
C1573      H1578   1.074       .  S
C1574      C1575   1.461       .  A
C1575      C1579   1.532       .  S
C1575      C1576   1.422       .  A
C1576      H1580   1.082       .  S
C1577      F1590   1.384       .  S
C1577      F1591   1.382       .  S
C1577      F1592   1.382       .  S
C1579      F1587   1.375       .  S
C1579      F1588   1.370       .  S
C1579      F1589   1.386       .  S
C1593      C1594   1.404       .  A
C1593      C1598   1.408       .  A
C1593      H1603   1.083       .  S
C1594      C1599   1.495       .  S
C1594      C1595   1.420       .  A
C1595      C1600   1.517       .  S
C1595      C1596   1.412       .  A
C1596      C1597   1.403       .  A
C1596      H1601   1.084       .  S
C1597      C1598   1.414       .  A
C1598      C1602   1.513       .  S
C1599      C1604   1.405       .  A
C1599      C1608   1.387       .  A
C1600      F1616   1.382       .  S
C1600      F1617   1.382       .  S
C1600      F1618   1.384       .  S
C1602      F1613   1.385       .  S
C1602      F1614   1.382       .  S
C1602      F1615   1.383       .  S
C1604      C1609   1.519       .  S
C1604      C1605   1.414       .  A
C1605      C1606   1.431       .  A
C1605      H1610   1.075       .  S
C1606      C1607   1.465       .  A
C1607      C1611   1.536       .  S
C1607      C1608   1.411       .  A
C1608      H1612   1.083       .  S
C1609      F1622   1.385       .  S
C1609      F1623   1.381       .  S
C1609      F1624   1.382       .  S
C1611      F1619   1.363       .  S
C1611      F1620   1.370       .  S
C1611      F1621   1.386       .  S
C1625      C1626   1.397       .  A
C1625      C1630   1.424       .  A
C1625      H1635   1.083       .  S
C1626      C1631   1.509       .  S
C1626      C1627   1.406       .  A
C1627      C1632   1.520       .  S
C1627      C1628   1.413       .  A
C1628      C1629   1.432       .  A
C1628      H1633   1.071       .  S
C1629      C1630   1.459       .  A
C1630      C1634   1.534       .  S
C1631      C1636   1.414       .  A
C1631      C1640   1.400       .  A
C1632      F1648   1.383       .  S
C1632      F1649   1.381       .  S
C1632      F1650   1.385       .  S
C1634      F1645   1.380       .  S
C1634      F1646   1.385       .  S
C1634      F1647   1.373       .  S
C1636      C1641   1.523       .  S
C1636      C1637   1.412       .  A
C1637      C1638   1.424       .  A
C1637      H1642   1.071       .  S
C1638      C1639   1.459       .  A
C1639      C1643   1.534       .  S
C1639      C1640   1.424       .  A
C1640      H1644   1.083       .  S
C1641      F1654   1.384       .  S
C1641      F1655   1.381       .  S
C1641      F1656   1.378       .  S
C1643      F1651   1.385       .  S
C1643      F1652   1.376       .  S
C1643      F1653   1.379       .  S
C1657      C1658   1.398       .  A
C1657      C1662   1.402       .  A
C1657      H1667   1.083       .  S
C1658      C1663   1.480       .  S
C1658      C1659   1.415       .  A
C1659      C1664   1.517       .  S
C1659      C1660   1.408       .  A
C1660      C1661   1.405       .  A
C1660      H1665   1.083       .  S
C1661      C1662   1.418       .  A
C1662      C1666   1.516       .  S
C1663      C1668   1.406       .  A
C1663      C1672   1.388       .  A
C1664      F1680   1.382       .  S
C1664      F1681   1.383       .  S
C1664      F1682   1.384       .  S
C1666      F1677   1.384       .  S
C1666      F1678   1.385       .  S
C1666      F1679   1.382       .  S
C1668      C1673   1.516       .  S
C1668      C1669   1.406       .  A
C1669      C1670   1.430       .  A
C1669      H1674   1.083       .  S
C1670      C1671   1.459       .  A
C1671      C1675   1.537       .  S
C1671      C1672   1.404       .  A
C1672      H1676   1.087       .  S
C1673      F1686   1.383       .  S
C1673      F1687   1.383       .  S
C1673      F1688   1.383       .  S
C1675      F1683   1.364       .  S
C1675      F1684   1.386       .  S
C1675      F1685   1.384       .  S
C1689      C1690   1.400       .  A
C1689      C1694   1.422       .  A
C1689      H1699   1.082       .  S
C1690      C1695   1.492       .  S
C1690      C1691   1.409       .  A
C1691      C1696   1.525       .  S
C1691      C1692   1.406       .  A
C1692      C1693   1.422       .  A
C1692      H1697   1.073       .  S
C1693      C1694   1.446       .  A
C1694      C1698   1.526       .  S
C1695      C1700   1.415       .  A
C1695      C1704   1.398       .  A
C1696      F1712   1.382       .  S
C1696      F1713   1.380       .  S
C1696      F1714   1.385       .  S
C1698      F1709   1.378       .  S
C1698      F1710   1.385       .  S
C1698      F1711   1.378       .  S
C1700      C1705   1.516       .  S
C1700      C1701   1.418       .  A
C1701      C1702   1.410       .  A
C1701      H1706   1.083       .  S
C1702      C1703   1.425       .  A
C1703      C1707   1.524       .  S
C1703      C1704   1.401       .  A
C1704      H1708   1.080       .  S
C1705      F1718   1.384       .  S
C1705      F1719   1.383       .  S
C1705      F1720   1.381       .  S
C1707      F1715   1.385       .  S
C1707      F1716   1.383       .  S
C1707      F1717   1.383       .  S
C1721      C1722   1.403       .  A
C1721      C1726   1.416       .  A
C1721      H1731   1.083       .  S
C1722      C1727   1.493       .  S
C1722      C1723   1.415       .  A
C1723      C1728   1.520       .  S
C1723      C1724   1.405       .  A
C1724      C1725   1.408       .  A
C1724      H1729   1.082       .  S
C1725      C1726   1.426       .  A
C1726      C1730   1.518       .  S
C1727      C1732   1.403       .  A
C1727      C1736   1.389       .  A
C1728      F1744   1.382       .  S
C1728      F1745   1.381       .  S
C1728      F1746   1.384       .  S
C1730      F1741   1.385       .  S
C1730      F1742   1.383       .  S
C1730      F1743   1.383       .  S
C1732      C1737   1.521       .  S
C1732      C1733   1.409       .  A
C1733      C1734   1.433       .  A
C1733      H1738   1.067       .  S
C1734      C1735   1.455       .  A
C1735      C1739   1.520       .  S
C1735      C1736   1.412       .  A
C1736      H1740   1.085       .  S
C1737      F1750   1.384       .  S
C1737      F1751   1.383       .  S
C1737      F1752   1.382       .  S
C1739      F1747   1.385       .  S
C1739      F1748   1.361       .  S
C1739      F1749   1.383       .  S
C1753      C1754   1.391       .  A
C1753      C1758   1.402       .  A
C1753      H1763   1.087       .  S
C1754      C1759   1.492       .  S
C1754      C1755   1.412       .  A
C1755      C1760   1.516       .  S
C1755      C1756   1.417       .  A
C1756      C1757   1.421       .  A
C1756      H1761   1.081       .  S
C1757      C1758   1.453       .  A
C1758      C1762   1.534       .  S
C1759      C1764   1.417       .  A
C1759      C1768   1.403       .  A
C1760      F1776   1.382       .  S
C1760      F1777   1.381       .  S
C1760      F1778   1.385       .  S
C1762      F1773   1.382       .  S
C1762      F1774   1.386       .  S
C1762      F1775   1.371       .  S
C1764      C1769   1.519       .  S
C1764      C1765   1.411       .  A
C1765      C1766   1.407       .  A
C1765      H1770   1.083       .  S
C1766      C1767   1.421       .  A
C1767      C1771   1.518       .  S
C1767      C1768   1.410       .  A
C1768      H1772   1.083       .  S
C1769      F1782   1.385       .  S
C1769      F1783   1.382       .  S
C1769      F1784   1.381       .  S
C1771      F1779   1.385       .  S
C1771      F1780   1.383       .  S
C1771      F1781   1.382       .  S
C1785      C1786   1.406       .  A
C1785      C1790   1.418       .  A
C1785      H1795   1.083       .  S
C1786      C1791   1.499       .  S
C1786      C1787   1.415       .  A
C1787      C1792   1.514       .  S
C1787      C1788   1.402       .  A
C1788      C1789   1.407       .  A
C1788      H1793   1.082       .  S
C1789      C1790   1.423       .  A
C1790      C1794   1.516       .  S
C1791      C1796   1.403       .  A
C1791      C1800   1.393       .  A
C1792      F1808   1.382       .  S
C1792      F1809   1.381       .  S
C1792      F1810   1.385       .  S
C1794      F1805   1.384       .  S
C1794      F1806   1.383       .  S
C1794      F1807   1.383       .  S
C1796      C1801   1.523       .  S
C1796      C1797   1.410       .  A
C1797      C1798   1.431       .  A
C1797      H1802   1.062       .  S
C1798      C1799   1.456       .  A
C1799      C1803   1.525       .  S
C1799      C1800   1.418       .  A
C1800      H1804   1.085       .  S
C1801      F1814   1.383       .  S
C1801      F1815   1.381       .  S
C1801      F1816   1.383       .  S
C1803      F1811   1.385       .  S
C1803      F1812   1.367       .  S
C1803      F1813   1.380       .  S
C1817      C1818   1.388       .  A
C1817      C1822   1.418       .  A
C1817      H1827   1.083       .  S
C1818      C1823   1.498       .  S
C1818      C1819   1.402       .  A
C1819      C1824   1.518       .  S
C1819      C1820   1.410       .  A
C1820      C1821   1.434       .  A
C1820      H1825   1.081       .  S
C1821      C1822   1.470       .  A
C1822      C1826   1.534       .  S
C1823      C1828   1.417       .  A
C1823      C1832   1.404       .  A
C1824      F1840   1.383       .  S
C1824      F1841   1.382       .  S
C1824      F1842   1.385       .  S
C1826      F1837   1.362       .  S
C1826      F1838   1.387       .  S
C1826      F1839   1.377       .  S
C1828      C1833   1.518       .  S
C1828      C1829   1.403       .  A
C1829      C1830   1.407       .  A
C1829      H1834   1.082       .  S
C1830      C1831   1.428       .  A
C1831      C1835   1.519       .  S
C1831      C1832   1.418       .  A
C1832      H1836   1.083       .  S
C1833      F1846   1.385       .  S
C1833      F1847   1.381       .  S
C1833      F1848   1.382       .  S
C1835      F1843   1.385       .  S
C1835      F1844   1.383       .  S
C1835      F1845   1.384       .  S
C1849      C1850   1.405       .  A
C1849      C1854   1.415       .  A
C1849      H1859   1.083       .  S
C1850      C1855   1.493       .  S
C1850      C1851   1.416       .  A
C1851      C1856   1.515       .  S
C1851      C1852   1.402       .  A
C1852      C1853   1.402       .  A
C1852      H1857   1.083       .  S
C1853      C1854   1.423       .  A
C1854      C1858   1.518       .  S
C1855      C1860   1.405       .  A
C1855      C1864   1.399       .  A
C1856      F1872   1.380       .  S
C1856      F1873   1.379       .  S
C1856      F1874   1.384       .  S
C1858      F1869   1.385       .  S
C1858      F1870   1.383       .  S
C1858      F1871   1.383       .  S
C1860      C1865   1.524       .  S
C1860      C1861   1.402       .  A
C1861      C1862   1.426       .  A
C1861      H1866   1.072       .  S
C1862      C1863   1.450       .  A
C1863      C1867   1.533       .  S
C1863      C1864   1.420       .  A
C1864      H1868   1.082       .  S
C1865      F1878   1.385       .  S
C1865      F1879   1.382       .  S
C1865      F1880   1.383       .  S
C1867      F1875   1.380       .  S
C1867      F1876   1.376       .  S
C1867      F1877   1.385       .  S
C1881      C1882   1.403       .  A
C1881      C1886   1.405       .  A
C1881      H1891   1.083       .  S
C1882      C1887   1.488       .  S
C1882      C1883   1.416       .  A
C1883      C1888   1.517       .  S
C1883      C1884   1.411       .  A
C1884      C1885   1.403       .  A
C1884      H1889   1.082       .  S
C1885      C1886   1.416       .  A
C1886      C1890   1.520       .  S
C1887      C1892   1.404       .  A
C1887      C1896   1.396       .  A
C1888      F1904   1.382       .  S
C1888      F1905   1.382       .  S
C1888      F1906   1.384       .  S
C1890      F1901   1.382       .  S
C1890      F1902   1.385       .  S
C1890      F1903   1.383       .  S
C1892      C1897   1.525       .  S
C1892      C1893   1.401       .  A
C1893      C1894   1.429       .  A
C1893      H1898   1.081       .  S
C1894      C1895   1.457       .  A
C1895      C1899   1.530       .  S
C1895      C1896   1.421       .  A
C1896      H1900   1.082       .  S
C1897      F1910   1.385       .  S
C1897      F1911   1.382       .  S
C1897      F1912   1.381       .  S
C1899      F1907   1.386       .  S
C1899      F1908   1.373       .  S
C1899      F1909   1.375       .  S
C1913      C1914   1.398       .  A
C1913      C1918   1.400       .  A
C1913      H1923   1.086       .  S
C1914      C1919   1.485       .  S
C1914      C1915   1.417       .  A
C1915      C1920   1.518       .  S
C1915      C1916   1.414       .  A
C1916      C1917   1.425       .  A
C1916      H1921   1.082       .  S
C1917      C1918   1.433       .  A
C1918      C1922   1.522       .  S
C1919      C1924   1.414       .  A
C1919      C1928   1.399       .  A
C1920      F1936   1.383       .  S
C1920      F1937   1.382       .  S
C1920      F1938   1.383       .  S
C1922      F1933   1.380       .  S
C1922      F1934   1.388       .  S
C1922      F1935   1.372       .  S
C1924      C1929   1.515       .  S
C1924      C1925   1.413       .  A
C1925      C1926   1.406       .  A
C1925      H1930   1.083       .  S
C1926      C1927   1.421       .  A
C1927      C1931   1.521       .  S
C1927      C1928   1.402       .  A
C1928      H1932   1.083       .  S
C1929      F1942   1.384       .  S
C1929      F1943   1.383       .  S
C1929      F1944   1.383       .  S
C1931      F1939   1.382       .  S
C1931      F1940   1.381       .  S
C1931      F1941   1.385       .  S
C1945      C1946   1.391       .  A
C1945      C1950   1.415       .  A
C1945      H1955   1.085       .  S
C1946      C1951   1.482       .  S
C1946      C1947   1.403       .  A
C1947      C1952   1.525       .  S
C1947      C1948   1.400       .  A
C1948      C1949   1.416       .  A
C1948      H1953   1.063       .  S
C1949      C1950   1.457       .  A
C1950      C1954   1.530       .  S
C1951      C1956   1.410       .  A
C1951      C1960   1.400       .  A
C1952      F1968   1.382       .  S
C1952      F1969   1.382       .  S
C1952      F1970   1.382       .  S
C1954      F1965   1.377       .  S
C1954      F1966   1.387       .  S
C1954      F1967   1.365       .  S
C1956      C1961   1.516       .  S
C1956      C1957   1.406       .  A
C1957      C1958   1.406       .  A
C1957      H1962   1.084       .  S
C1958      C1959   1.423       .  A
C1959      C1963   1.520       .  S
C1959      C1960   1.406       .  A
C1960      H1964   1.085       .  S
C1961      F1974   1.384       .  S
C1961      F1975   1.383       .  S
C1961      F1976   1.383       .  S
C1963      F1971   1.384       .  S
C1963      F1972   1.378       .  S
C1963      F1973   1.384       .  S
C1977      C1978   1.397       .  A
C1977      C1982   1.410       .  A
C1977      H1987   1.085       .  S
C1978      C1983   1.498       .  S
C1978      C1979   1.412       .  A
C1979      C1984   1.519       .  S
C1979      C1980   1.413       .  A
C1980      C1981   1.423       .  A
C1980      H1985   1.072       .  S
C1981      C1982   1.443       .  A
C1982      C1986   1.519       .  S
C1983      C1988   1.417       .  A
C1983      C1992   1.402       .  A
C1984      F2000   1.382       .  S
C1984      F2001   1.382       .  S
C1984      F2002   1.385       .  S
C1986      F1997   1.383       .  S
C1986      F1998   1.384       .  S
C1986      F1999   1.371       .  S
C1988      C1993   1.516       .  S
C1988      C1989   1.405       .  A
C1989      C1990   1.406       .  A
C1989      H1994   1.082       .  S
C1990      C1991   1.429       .  A
C1991      C1995   1.520       .  S
C1991      C1992   1.415       .  A
C1992      H1996   1.082       .  S
C1993      F2006   1.385       .  S
C1993      F2007   1.380       .  S
C1993      F2008   1.380       .  S
C1995      F2003   1.383       .  S
C1995      F2004   1.384       .  S
C1995      F2005   1.385       .  S
C2009      C2010   1.401       .  A
C2009      C2014   1.416       .  A
C2009      H2019   1.083       .  S
C2010      C2015   1.509       .  S
C2010      C2011   1.417       .  A
C2011      C2016   1.525       .  S
C2011      C2012   1.409       .  A
C2012      C2013   1.424       .  A
C2012      H2017   1.075       .  S
C2013      C2014   1.453       .  A
C2014      C2018   1.533       .  S
C2015      C2020   1.416       .  A
C2015      C2024   1.398       .  A
C2016      F2032   1.380       .  S
C2016      F2033   1.383       .  S
C2016      F2034   1.385       .  S
C2018      F2029   1.384       .  S
C2018      F2030   1.381       .  S
C2018      F2031   1.377       .  S
C2020      C2025   1.524       .  S
C2020      C2021   1.410       .  A
C2021      C2022   1.426       .  A
C2021      H2026   1.072       .  S
C2022      C2023   1.449       .  A
C2023      C2027   1.530       .  S
C2023      C2024   1.415       .  A
C2024      H2028   1.080       .  S
C2025      F2038   1.385       .  S
C2025      F2039   1.379       .  S
C2025      F2040   1.382       .  S
C2027      F2035   1.385       .  S
C2027      F2036   1.375       .  S
C2027      F2037   1.381       .  S
C2041      C2042   1.400       .  A
C2041      C2046   1.411       .  A
C2041      H2051   1.083       .  S
C2042      C2047   1.486       .  S
C2042      C2043   1.413       .  A
C2043      C2048   1.520       .  S
C2043      C2044   1.405       .  A
C2044      C2045   1.408       .  A
C2044      H2049   1.082       .  S
C2045      C2046   1.426       .  A
C2046      C2050   1.519       .  S
C2047      C2052   1.403       .  A
C2047      C2056   1.393       .  A
C2048      F2064   1.382       .  S
C2048      F2065   1.382       .  S
C2048      F2066   1.385       .  S
C2050      F2061   1.385       .  S
C2050      F2062   1.383       .  S
C2050      F2063   1.383       .  S
C2052      C2057   1.520       .  S
C2052      C2053   1.405       .  A
C2053      C2054   1.427       .  A
C2053      H2058   1.074       .  S
C2054      C2055   1.456       .  A
C2055      C2059   1.533       .  S
C2055      C2056   1.415       .  A
C2056      H2060   1.083       .  S
C2057      F2070   1.384       .  S
C2057      F2071   1.383       .  S
C2057      F2072   1.382       .  S
C2059      F2067   1.379       .  S
C2059      F2068   1.377       .  S
C2059      F2069   1.385       .  S
C2073      C2074   1.392       .  A
C2073      C2078   1.420       .  A
C2073      H2083   1.086       .  S
C2074      C2079   1.495       .  S
C2074      C2075   1.405       .  A
C2075      C2080   1.522       .  S
C2075      C2076   1.403       .  A
C2076      C2077   1.431       .  A
C2076      H2081   1.082       .  S
C2077      C2078   1.465       .  A
C2078      C2082   1.538       .  S
C2079      C2084   1.418       .  A
C2079      C2088   1.399       .  A
C2080      F2096   1.382       .  S
C2080      F2097   1.383       .  S
C2080      F2098   1.384       .  S
C2082      F2093   1.384       .  S
C2082      F2094   1.386       .  S
C2082      F2095   1.362       .  S
C2084      C2089   1.518       .  S
C2084      C2085   1.414       .  A
C2085      C2086   1.407       .  A
C2085      H2090   1.083       .  S
C2086      C2087   1.422       .  A
C2087      C2091   1.518       .  S
C2087      C2088   1.404       .  A
C2088      H2092   1.085       .  S
C2089      F2102   1.385       .  S
C2089      F2103   1.382       .  S
C2089      F2104   1.383       .  S
C2091      F2099   1.383       .  S
C2091      F2100   1.378       .  S
C2091      F2101   1.383       .  S
C2105      C2106   1.390       .  A
C2105      C2110   1.412       .  A
C2105      H2115   1.085       .  S
C2106      C2111   1.491       .  S
C2106      C2107   1.401       .  A
C2107      C2112   1.521       .  S
C2107      C2108   1.408       .  A
C2108      C2109   1.431       .  A
C2108      H2113   1.061       .  S
C2109      C2110   1.454       .  A
C2110      C2114   1.515       .  S
C2111      C2116   1.413       .  A
C2111      C2120   1.400       .  A
C2112      F2128   1.383       .  S
C2112      F2129   1.381       .  S
C2112      F2130   1.385       .  S
C2114      F2125   1.383       .  S
C2114      F2126   1.386       .  S
C2114      F2127   1.361       .  S
C2116      C2121   1.522       .  S
C2116      C2117   1.408       .  A
C2117      C2118   1.413       .  A
C2117      H2122   1.082       .  S
C2118      C2119   1.430       .  A
C2119      C2123   1.520       .  S
C2119      C2120   1.414       .  A
C2120      H2124   1.083       .  S
C2121      F2134   1.384       .  S
C2121      F2135   1.382       .  S
C2121      F2136   1.382       .  S
C2123      F2131   1.385       .  S
C2123      F2132   1.383       .  S
C2123      F2133   1.382       .  S
C2137      C2138   1.396       .  A
C2137      C2142   1.418       .  A
C2137      H2147   1.083       .  S
C2138      C2143   1.496       .  S
C2138      C2139   1.408       .  A
C2139      C2144   1.522       .  S
C2139      C2140   1.408       .  A
C2140      C2141   1.423       .  A
C2140      H2145   1.077       .  S
C2141      C2142   1.455       .  A
C2142      C2146   1.531       .  S
C2143      C2148   1.405       .  A
C2143      C2152   1.394       .  A
C2144      F2160   1.383       .  S
C2144      F2161   1.380       .  S
C2144      F2162   1.385       .  S
C2146      F2157   1.385       .  S
C2146      F2158   1.381       .  S
C2146      F2159   1.373       .  S
C2148      C2153   1.523       .  S
C2148      C2149   1.408       .  A
C2149      C2150   1.428       .  A
C2149      H2154   1.068       .  S
C2150      C2151   1.461       .  A
C2151      C2155   1.534       .  S
C2151      C2152   1.418       .  A
C2152      H2156   1.083       .  S
C2153      F2166   1.384       .  S
C2153      F2167   1.383       .  S
C2153      F2168   1.381       .  S
C2155      F2163   1.386       .  S
C2155      F2164   1.374       .  S
C2155      F2165   1.381       .  S
C2169      C2170   1.406       .  A
C2169      C2174   1.414       .  A
C2169      H2179   1.081       .  S
C2170      C2175   1.492       .  S
C2170      C2171   1.420       .  A
C2171      C2176   1.519       .  S
C2171      C2172   1.401       .  A
C2172      C2173   1.401       .  A
C2172      H2177   1.085       .  S
C2173      C2174   1.420       .  A
C2174      C2178   1.517       .  S
C2175      C2180   1.409       .  A
C2175      C2184   1.390       .  A
C2176      F2192   1.383       .  S
C2176      F2193   1.383       .  S
C2176      F2194   1.384       .  S
C2178      F2189   1.383       .  S
C2178      F2190   1.385       .  S
C2178      F2191   1.378       .  S
C2180      C2185   1.518       .  S
C2180      C2181   1.414       .  A
C2181      C2182   1.426       .  A
C2181      H2186   1.076       .  S
C2182      C2183   1.454       .  A
C2183      C2187   1.532       .  S
C2183      C2184   1.401       .  A
C2184      H2188   1.086       .  S
C2185      F2198   1.385       .  S
C2185      F2199   1.381       .  S
C2185      F2200   1.384       .  S
C2187      F2195   1.381       .  S
C2187      F2196   1.367       .  S
C2187      F2197   1.386       .  S
C2201      C2202   1.396       .  A
C2201      C2206   1.404       .  A
C2201      H2211   1.083       .  S
C2202      C2207   1.485       .  S
C2202      C2203   1.411       .  A
C2203      C2208   1.515       .  S
C2203      C2204   1.412       .  A
C2204      C2205   1.412       .  A
C2204      H2209   1.082       .  S
C2205      C2206   1.435       .  A
C2206      C2210   1.526       .  S
C2207      C2212   1.408       .  A
C2207      C2216   1.400       .  A
C2208      F2224   1.382       .  S
C2208      F2225   1.383       .  S
C2208      F2226   1.384       .  S
C2210      F2221   1.383       .  S
C2210      F2222   1.385       .  S
C2210      F2223   1.380       .  S
C2212      C2217   1.522       .  S
C2212      C2213   1.397       .  A
C2213      C2214   1.424       .  A
C2213      H2218   1.078       .  S
C2214      C2215   1.446       .  A
C2215      C2219   1.532       .  S
C2215      C2216   1.418       .  A
C2216      H2220   1.082       .  S
C2217      F2230   1.383       .  S
C2217      F2231   1.383       .  S
C2217      F2232   1.381       .  S
C2219      F2227   1.378       .  S
C2219      F2228   1.385       .  S
C2219      F2229   1.378       .  S
C2233      C2234   1.401       .  A
C2233      C2238   1.410       .  A
C2233      H2243   1.082       .  S
C2234      C2239   1.491       .  S
C2234      C2235   1.414       .  A
C2235      C2240   1.517       .  S
C2235      C2236   1.412       .  A
C2236      C2237   1.411       .  A
C2236      H2241   1.083       .  S
C2237      C2238   1.426       .  A
C2238      C2242   1.521       .  S
C2239      C2244   1.407       .  A
C2239      C2248   1.397       .  A
C2240      F2256   1.383       .  S
C2240      F2257   1.382       .  S
C2240      F2258   1.384       .  S
C2242      F2253   1.382       .  S
C2242      F2254   1.385       .  S
C2242      F2255   1.384       .  S
C2244      C2249   1.526       .  S
C2244      C2245   1.403       .  A
C2245      C2246   1.427       .  A
C2245      H2250   1.064       .  S
C2246      C2247   1.454       .  A
C2247      C2251   1.528       .  S
C2247      C2248   1.417       .  A
C2248      H2252   1.085       .  S
C2249      F2262   1.383       .  S
C2249      F2263   1.384       .  S
C2249      F2264   1.380       .  S
C2251      F2259   1.384       .  S
C2251      F2260   1.370       .  S
C2251      F2261   1.385       .  S
C2265      C2266   1.398       .  A
C2265      C2270   1.420       .  A
C2265      H2275   1.083       .  S
C2266      C2271   1.504       .  S
C2266      C2267   1.410       .  A
C2267      C2272   1.521       .  S
C2267      C2268   1.409       .  A
C2268      C2269   1.426       .  A
C2268      H2273   1.076       .  S
C2269      C2270   1.458       .  A
C2270      C2274   1.537       .  S
C2271      C2276   1.410       .  A
C2271      C2280   1.398       .  A
C2272      F2288   1.383       .  S
C2272      F2289   1.382       .  S
C2272      F2290   1.383       .  S
C2274      F2285   1.380       .  S
C2274      F2286   1.386       .  S
C2274      F2287   1.372       .  S
C2276      C2281   1.523       .  S
C2276      C2277   1.411       .  A
C2277      C2278   1.428       .  A
C2277      H2282   1.071       .  S
C2278      C2279   1.455       .  A
C2279      C2283   1.534       .  S
C2279      C2280   1.419       .  A
C2280      H2284   1.083       .  S
C2281      F2294   1.385       .  S
C2281      F2295   1.382       .  S
C2281      F2296   1.379       .  S
C2283      F2291   1.381       .  S
C2283      F2292   1.374       .  S
C2283      F2293   1.385       .  S
C2297      C2298   1.389       .  A
C2297      C2302   1.408       .  A
C2297      H2307   1.087       .  S
C2298      C2303   1.493       .  S
C2298      C2299   1.408       .  A
C2299      C2304   1.519       .  S
C2299      C2300   1.413       .  A
C2300      C2301   1.430       .  A
C2300      H2305   1.081       .  S
C2301      C2302   1.461       .  A
C2302      C2306   1.537       .  S
C2303      C2308   1.418       .  A
C2303      C2312   1.399       .  A
C2304      F2320   1.382       .  S
C2304      F2321   1.381       .  S
C2304      F2322   1.385       .  S
C2306      F2317   1.365       .  S
C2306      F2318   1.386       .  S
C2306      F2319   1.384       .  S
C2308      C2313   1.517       .  S
C2308      C2309   1.413       .  A
C2309      C2310   1.407       .  A
C2309      H2314   1.083       .  S
C2310      C2311   1.428       .  A
C2311      C2315   1.521       .  S
C2311      C2312   1.409       .  A
C2312      H2316   1.083       .  S
C2313      F2326   1.384       .  S
C2313      F2327   1.382       .  S
C2313      F2328   1.382       .  S
C2315      F2323   1.383       .  S
C2315      F2324   1.384       .  S
C2315      F2325   1.385       .  S
C2329      C2330   1.391       .  A
C2329      C2334   1.416       .  A
C2329      H2339   1.082       .  S
C2330      C2335   1.496       .  S
C2330      C2331   1.406       .  A
C2331      C2336   1.523       .  S
C2331      C2332   1.408       .  A
C2332      C2333   1.431       .  A
C2332      H2337   1.072       .  S
C2333      C2334   1.457       .  A
C2334      C2338   1.528       .  S
C2335      C2340   1.418       .  A
C2335      C2344   1.407       .  A
C2336      F2352   1.382       .  S
C2336      F2353   1.383       .  S
C2336      F2354   1.385       .  S
C2338      F2349   1.380       .  S
C2338      F2350   1.385       .  S
C2338      F2351   1.367       .  S
C2340      C2345   1.522       .  S
C2340      C2341   1.405       .  A
C2341      C2342   1.406       .  A
C2341      H2346   1.083       .  S
C2342      C2343   1.418       .  A
C2343      C2347   1.516       .  S
C2343      C2344   1.416       .  A
C2344      H2348   1.083       .  S
C2345      F2358   1.385       .  S
C2345      F2359   1.382       .  S
C2345      F2360   1.383       .  S
C2347      F2355   1.383       .  S
C2347      F2356   1.383       .  S
C2347      F2357   1.385       .  S
C2361      C2362   1.393       .  A
C2361      C2366   1.419       .  A
C2361      H2371   1.086       .  S
C2362      C2367   1.485       .  S
C2362      C2363   1.401       .  A
C2363      C2368   1.525       .  S
C2363      C2364   1.398       .  A
C2364      C2365   1.430       .  A
C2364      H2369   1.079       .  S
C2365      C2366   1.463       .  A
C2366      C2370   1.532       .  S
C2367      C2372   1.416       .  A
C2367      C2376   1.404       .  A
C2368      F2384   1.381       .  S
C2368      F2385   1.383       .  S
C2368      F2386   1.385       .  S
C2370      F2381   1.384       .  S
C2370      F2382   1.386       .  S
C2370      F2383   1.359       .  S
C2372      C2377   1.518       .  S
C2372      C2373   1.408       .  A
C2373      C2374   1.402       .  A
C2373      H2378   1.083       .  S
C2374      C2375   1.413       .  A
C2375      C2379   1.518       .  S
C2375      C2376   1.406       .  A
C2376      H2380   1.083       .  S
C2377      F2390   1.385       .  S
C2377      F2391   1.382       .  S
C2377      F2392   1.382       .  S
C2379      F2387   1.383       .  S
C2379      F2388   1.382       .  S
C2379      F2389   1.385       .  S
C2393      C2394   1.394       .  A
C2393      C2398   1.422       .  A
C2393      H2403   1.082       .  S
C2394      C2399   1.496       .  S
C2394      C2395   1.404       .  A
C2395      C2400   1.521       .  S
C2395      C2396   1.402       .  A
C2396      C2397   1.426       .  A
C2396      H2401   1.077       .  S
C2397      C2398   1.463       .  A
C2398      C2402   1.532       .  S
C2399      C2404   1.405       .  A
C2399      C2408   1.391       .  A
C2400      F2416   1.381       .  S
C2400      F2417   1.383       .  S
C2400      F2418   1.385       .  S
C2402      F2413   1.386       .  S
C2402      F2414   1.378       .  S
C2402      F2415   1.366       .  S
C2404      C2409   1.521       .  S
C2404      C2405   1.410       .  A
C2405      C2406   1.428       .  A
C2405      H2410   1.072       .  S
C2406      C2407   1.459       .  A
C2407      C2411   1.525       .  S
C2407      C2408   1.416       .  A
C2408      H2412   1.082       .  S
C2409      F2422   1.385       .  S
C2409      F2423   1.381       .  S
C2409      F2424   1.383       .  S
C2411      F2419   1.377       .  S
C2411      F2420   1.367       .  S
C2411      F2421   1.386       .  S
C2425      C2426   1.396       .  A
C2425      C2430   1.420       .  A
C2425      H2435   1.082       .  S
C2426      C2431   1.494       .  S
C2426      C2427   1.404       .  A
C2427      C2432   1.524       .  S
C2427      C2428   1.403       .  A
C2428      C2429   1.428       .  A
C2428      H2433   1.073       .  S
C2429      C2430   1.457       .  A
C2430      C2434   1.532       .  S
C2431      C2436   1.417       .  A
C2431      C2440   1.406       .  A
C2432      F2448   1.382       .  S
C2432      F2449   1.383       .  S
C2432      F2450   1.381       .  S
C2434      F2445   1.385       .  S
C2434      F2446   1.379       .  S
C2434      F2447   1.376       .  S
C2436      C2441   1.515       .  S
C2436      C2437   1.403       .  A
C2437      C2438   1.400       .  A
C2437      H2442   1.083       .  S
C2438      C2439   1.417       .  A
C2439      C2443   1.518       .  S
C2439      C2440   1.413       .  A
C2440      H2444   1.083       .  S
C2441      F2454   1.384       .  S
C2441      F2455   1.381       .  S
C2441      F2456   1.383       .  S
C2443      F2451   1.382       .  S
C2443      F2452   1.384       .  S
C2443      F2453   1.385       .  S
C2457      C2458   1.393       .  A
C2457      C2462   1.414       .  A
C2457      H2467   1.085       .  S
C2458      C2463   1.486       .  S
C2458      C2459   1.407       .  A
C2459      C2464   1.524       .  S
C2459      C2460   1.402       .  A
C2460      C2461   1.429       .  A
C2460      H2465   1.080       .  S
C2461      C2462   1.455       .  A
C2462      C2466   1.531       .  S
C2463      C2468   1.417       .  A
C2463      C2472   1.402       .  A
C2464      F2480   1.382       .  S
C2464      F2481   1.383       .  S
C2464      F2482   1.384       .  S
C2466      F2477   1.382       .  S
C2466      F2478   1.386       .  S
C2466      F2479   1.367       .  S
C2468      C2473   1.517       .  S
C2468      C2469   1.409       .  A
C2469      C2470   1.402       .  A
C2469      H2474   1.083       .  S
C2470      C2471   1.413       .  A
C2471      C2475   1.516       .  S
C2471      C2472   1.405       .  A
C2472      H2476   1.083       .  S
C2473      F2486   1.385       .  S
C2473      F2487   1.382       .  S
C2473      F2488   1.379       .  S
C2475      F2483   1.384       .  S
C2475      F2484   1.383       .  S
C2475      F2485   1.381       .  S
C2489      C2490   1.388       .  A
C2489      C2494   1.420       .  A
C2489      H2499   1.082       .  S
C2490      C2495   1.492       .  S
C2490      C2491   1.398       .  A
C2491      C2496   1.522       .  S
C2491      C2492   1.405       .  A
C2492      C2493   1.433       .  A
C2492      H2497   1.067       .  S
C2493      C2494   1.468       .  A
C2494      C2498   1.540       .  S
C2495      C2500   1.416       .  A
C2495      C2504   1.404       .  A
C2496      F2512   1.383       .  S
C2496      F2513   1.383       .  S
C2496      F2514   1.379       .  S
C2498      F2509   1.373       .  S
C2498      F2510   1.386       .  S
C2498      F2511   1.372       .  S
C2500      C2505   1.521       .  S
C2500      C2501   1.405       .  A
C2501      C2502   1.405       .  A
C2501      H2506   1.083       .  S
C2502      C2503   1.421       .  A
C2503      C2507   1.517       .  S
C2503      C2504   1.414       .  A
C2504      H2508   1.083       .  S
C2505      F2518   1.384       .  S
C2505      F2519   1.382       .  S
C2505      F2520   1.382       .  S
C2507      F2515   1.383       .  S
C2507      F2516   1.383       .  S
C2507      F2517   1.384       .  S
C2521      C2522   1.399       .  A
C2521      C2526   1.420       .  A
C2521      H2531   1.082       .  S
C2522      C2527   1.495       .  S
C2522      C2523   1.408       .  A
C2523      C2528   1.522       .  S
C2523      C2524   1.407       .  A
C2524      C2525   1.420       .  A
C2524      H2529   1.075       .  S
C2525      C2526   1.452       .  A
C2526      C2530   1.534       .  S
C2527      C2532   1.406       .  A
C2527      C2536   1.390       .  A
C2528      F2544   1.383       .  S
C2528      F2545   1.381       .  S
C2528      F2546   1.384       .  S
C2530      F2541   1.385       .  S
C2530      F2542   1.380       .  S
C2530      F2543   1.374       .  S
C2532      C2537   1.520       .  S
C2532      C2533   1.414       .  A
C2533      C2534   1.435       .  A
C2533      H2538   1.077       .  S
C2534      C2535   1.453       .  A
C2535      C2539   1.524       .  S
C2535      C2536   1.413       .  A
C2536      H2540   1.083       .  S
C2537      F2550   1.385       .  S
C2537      F2551   1.383       .  S
C2537      F2552   1.382       .  S
C2539      F2547   1.386       .  S
C2539      F2548   1.376       .  S
C2539      F2549   1.367       .  S
C2553      C2554   1.401       .  A
C2553      C2558   1.406       .  A
C2553      H2563   1.079       .  S
C2554      C2559   1.501       .  S
C2554      C2555   1.422       .  A
C2555      C2560   1.519       .  S
C2555      C2556   1.417       .  A
C2556      C2557   1.406       .  A
C2556      H2561   1.083       .  S
C2557      C2558   1.417       .  A
C2558      C2562   1.520       .  S
C2559      C2564   1.415       .  A
C2559      C2568   1.397       .  A
C2560      F2576   1.381       .  S
C2560      F2577   1.382       .  S
C2560      F2578   1.385       .  S
C2562      F2573   1.385       .  S
C2562      F2574   1.382       .  S
C2562      F2575   1.384       .  S
C2564      C2569   1.518       .  S
C2564      C2565   1.416       .  A
C2565      C2566   1.421       .  A
C2565      H2570   1.072       .  S
C2566      C2567   1.444       .  A
C2567      C2571   1.522       .  S
C2567      C2568   1.410       .  A
C2568      H2572   1.084       .  S
C2569      F2582   1.384       .  S
C2569      F2583   1.381       .  S
C2569      F2584   1.382       .  S
C2571      F2579   1.381       .  S
C2571      F2580   1.371       .  S
C2571      F2581   1.385       .  S
C2585      C2586   1.389       .  A
C2585      C2590   1.414       .  A
C2585      H2595   1.086       .  S
C2586      C2591   1.482       .  S
C2586      C2587   1.405       .  A
C2587      C2592   1.524       .  S
C2587      C2588   1.401       .  A
C2588      C2589   1.426       .  A
C2588      H2593   1.079       .  S
C2589      C2590   1.463       .  A
C2590      C2594   1.531       .  S
C2591      C2596   1.421       .  A
C2591      C2600   1.401       .  A
C2592      F2608   1.382       .  S
C2592      F2609   1.383       .  S
C2592      F2610   1.384       .  S
C2594      F2605   1.381       .  S
C2594      F2606   1.387       .  S
C2594      F2607   1.362       .  S
C2596      C2601   1.516       .  S
C2596      C2597   1.405       .  A
C2597      C2598   1.398       .  A
C2597      H2602   1.084       .  S
C2598      C2599   1.415       .  A
C2599      C2603   1.518       .  S
C2599      C2600   1.402       .  A
C2600      H2604   1.084       .  S
C2601      F2614   1.384       .  S
C2601      F2615   1.377       .  S
C2601      F2616   1.383       .  S
C2603      F2611   1.384       .  S
C2603      F2612   1.383       .  S
C2603      F2613   1.381       .  S
C2617      C2618   1.387       .  A
C2617      C2622   1.416       .  A
C2617      H2627   1.083       .  S
C2618      C2623   1.496       .  S
C2618      C2619   1.403       .  A
C2619      C2624   1.520       .  S
C2619      C2620   1.412       .  A
C2620      C2621   1.433       .  A
C2620      H2625   1.070       .  S
C2621      C2622   1.458       .  A
C2622      C2626   1.526       .  S
C2623      C2628   1.418       .  A
C2623      C2632   1.405       .  A
C2624      F2640   1.383       .  S
C2624      F2641   1.382       .  S
C2624      F2642   1.381       .  S
C2626      F2637   1.375       .  S
C2626      F2638   1.386       .  S
C2626      F2639   1.368       .  S
C2628      C2633   1.521       .  S
C2628      C2629   1.408       .  A
C2629      C2630   1.404       .  A
C2629      H2634   1.083       .  S
C2630      C2631   1.421       .  A
C2631      C2635   1.518       .  S
C2631      C2632   1.415       .  A
C2632      H2636   1.083       .  S
C2633      F2646   1.385       .  S
C2633      F2647   1.382       .  S
C2633      F2648   1.382       .  S
C2635      F2643   1.385       .  S
C2635      F2644   1.382       .  S
C2635      F2645   1.383       .  S
C2649      C2650   1.401       .  A
C2649      C2654   1.416       .  A
C2649      H2659   1.084       .  S
C2650      C2655   1.507       .  S
C2650      C2651   1.415       .  A
C2651      C2656   1.523       .  S
C2651      C2652   1.415       .  A
C2652      C2653   1.421       .  A
C2652      H2657   1.071       .  S
C2653      C2654   1.452       .  A
C2654      C2658   1.538       .  S
C2655      C2660   1.411       .  A
C2655      C2664   1.401       .  A
C2656      F2672   1.384       .  S
C2656      F2673   1.383       .  S
C2656      F2674   1.375       .  S
C2658      F2669   1.386       .  S
C2658      F2670   1.379       .  S
C2658      F2671   1.373       .  S
C2660      C2665   1.521       .  S
C2660      C2661   1.407       .  A
C2661      C2662   1.433       .  A
C2661      H2666   1.080       .  S
C2662      C2663   1.452       .  A
C2663      C2667   1.529       .  S
C2663      C2664   1.419       .  A
C2664      H2668   1.084       .  S
C2665      F2678   1.384       .  S
C2665      F2679   1.382       .  S
C2665      F2680   1.384       .  S
C2667      F2675   1.386       .  S
C2667      F2676   1.374       .  S
C2667      F2677   1.374       .  S
C2681      C2682   1.398       .  A
C2681      C2686   1.418       .  A
C2681      H2691   1.083       .  S
C2682      C2687   1.495       .  S
C2682      C2683   1.408       .  A
C2683      C2688   1.520       .  S
C2683      C2684   1.410       .  A
C2684      C2685   1.426       .  A
C2684      H2689   1.077       .  S
C2685      C2686   1.447       .  A
C2686      C2690   1.527       .  S
C2687      C2692   1.415       .  A
C2687      C2696   1.405       .  A
C2688      F2704   1.382       .  S
C2688      F2705   1.382       .  S
C2688      F2706   1.385       .  S
C2690      F2701   1.385       .  S
C2690      F2702   1.379       .  S
C2690      F2703   1.372       .  S
C2692      C2697   1.515       .  S
C2692      C2693   1.400       .  A
C2693      C2694   1.404       .  A
C2693      H2698   1.082       .  S
C2694      C2695   1.425       .  A
C2695      C2699   1.518       .  S
C2695      C2696   1.418       .  A
C2696      H2700   1.083       .  S
C2697      F2710   1.384       .  S
C2697      F2711   1.379       .  S
C2697      F2712   1.377       .  S
C2699      F2707   1.384       .  S
C2699      F2708   1.383       .  S
C2699      F2709   1.385       .  S
C2713      C2714   1.385       .  A
C2713      C2718   1.408       .  A
C2713      H2723   1.087       .  S
C2714      C2719   1.506       .  S
C2714      C2715   1.411       .  A
C2715      C2720   1.517       .  S
C2715      C2716   1.425       .  A
C2716      C2717   1.431       .  A
C2716      H2721   1.074       .  S
C2717      C2718   1.457       .  A
C2718      C2722   1.522       .  S
C2719      C2724   1.421       .  A
C2719      C2728   1.408       .  A
C2720      F2736   1.383       .  S
C2720      F2737   1.381       .  S
C2720      F2738   1.384       .  S
C2722      F2733   1.378       .  S
C2722      F2734   1.384       .  S
C2722      F2735   1.361       .  S
C2724      C2729   1.517       .  S
C2724      C2725   1.411       .  A
C2725      C2726   1.401       .  A
C2725      H2730   1.076       .  S
C2726      C2727   1.418       .  A
C2727      C2731   1.514       .  S
C2727      C2728   1.419       .  A
C2728      H2732   1.083       .  S
C2729      F2742   1.382       .  S
C2729      F2743   1.381       .  S
C2729      F2744   1.384       .  S
C2731      F2739   1.383       .  S
C2731      F2740   1.383       .  S
C2731      F2741   1.384       .  S
C2745      C2746   1.395       .  A
C2745      C2750   1.414       .  A
C2745      H2755   1.085       .  S
C2746      C2751   1.492       .  S
C2746      C2747   1.405       .  A
C2747      C2752   1.523       .  S
C2747      C2748   1.406       .  A
C2748      C2749   1.429       .  A
C2748      H2753   1.063       .  S
C2749      C2750   1.449       .  A
C2750      C2754   1.522       .  S
C2751      C2756   1.412       .  A
C2751      C2760   1.401       .  A
C2752      F2768   1.382       .  S
C2752      F2769   1.382       .  S
C2752      F2770   1.384       .  S
C2754      F2765   1.372       .  S
C2754      F2766   1.385       .  S
C2754      F2767   1.377       .  S
C2756      C2761   1.515       .  S
C2756      C2757   1.404       .  A
C2757      C2758   1.409       .  A
C2757      H2762   1.082       .  S
C2758      C2759   1.430       .  A
C2759      C2763   1.520       .  S
C2759      C2760   1.414       .  A
C2760      H2764   1.083       .  S
C2761      F2774   1.384       .  S
C2761      F2775   1.382       .  S
C2761      F2776   1.382       .  S
C2763      F2771   1.383       .  S
C2763      F2772   1.383       .  S
C2763      F2773   1.385       .  S
C2777      C2778   1.389       .  A
C2777      C2782   1.417       .  A
C2777      H2787   1.086       .  S
C2778      C2783   1.502       .  S
C2778      C2779   1.407       .  A
C2779      C2784   1.519       .  S
C2779      C2780   1.414       .  A
C2780      C2781   1.430       .  A
C2780      H2785   1.082       .  S
C2781      C2782   1.470       .  A
C2782      C2786   1.543       .  S
C2783      C2788   1.412       .  A
C2783      C2792   1.392       .  A
C2784      F2800   1.382       .  S
C2784      F2801   1.383       .  S
C2784      F2802   1.384       .  S
C2786      F2797   1.362       .  S
C2786      F2798   1.387       .  S
C2786      F2799   1.382       .  S
C2788      C2793   1.520       .  S
C2788      C2789   1.413       .  A
C2789      C2790   1.423       .  A
C2789      H2794   1.076       .  S
C2790      C2791   1.456       .  A
C2791      C2795   1.527       .  S
C2791      C2792   1.417       .  A
C2792      H2796   1.082       .  S
C2793      F2806   1.385       .  S
C2793      F2807   1.382       .  S
C2793      F2808   1.382       .  S
C2795      F2803   1.385       .  S
C2795      F2804   1.365       .  S
C2795      F2805   1.379       .  S
C2809      C2810   1.398       .  A
C2809      C2814   1.418       .  A
C2809      H2819   1.083       .  S
C2810      C2815   1.492       .  S
C2810      C2811   1.407       .  A
C2811      C2816   1.521       .  S
C2811      C2812   1.405       .  A
C2812      C2813   1.428       .  A
C2812      H2817   1.077       .  S
C2813      C2814   1.444       .  A
C2814      C2818   1.523       .  S
C2815      C2820   1.416       .  A
C2815      C2824   1.402       .  A
C2816      F2832   1.382       .  S
C2816      F2833   1.383       .  S
C2816      F2834   1.385       .  S
C2818      F2829   1.368       .  S
C2818      F2830   1.385       .  S
C2818      F2831   1.378       .  S
C2820      C2825   1.518       .  S
C2820      C2821   1.406       .  A
C2821      C2822   1.406       .  A
C2821      H2826   1.082       .  S
C2822      C2823   1.423       .  A
C2823      C2827   1.519       .  S
C2823      C2824   1.411       .  A
C2824      H2828   1.083       .  S
C2825      F2838   1.385       .  S
C2825      F2839   1.382       .  S
C2825      F2840   1.380       .  S
C2827      F2835   1.382       .  S
C2827      F2836   1.384       .  S
C2827      F2837   1.385       .  S
C2841      C2842   1.393       .  A
C2841      C2846   1.411       .  A
C2841      H2851   1.085       .  S
C2842      C2847   1.486       .  S
C2842      C2843   1.405       .  A
C2843      C2848   1.524       .  S
C2843      C2844   1.405       .  A
C2844      C2845   1.427       .  A
C2844      H2849   1.062       .  S
C2845      C2846   1.452       .  A
C2846      C2850   1.529       .  S
C2847      C2852   1.412       .  A
C2847      C2856   1.402       .  A
C2848      F2864   1.382       .  S
C2848      F2865   1.382       .  S
C2848      F2866   1.384       .  S
C2850      F2861   1.382       .  S
C2850      F2862   1.386       .  S
C2850      F2863   1.377       .  S
C2852      C2857   1.515       .  S
C2852      C2853   1.398       .  A
C2853      C2854   1.408       .  A
C2853      H2858   1.082       .  S
C2854      C2855   1.424       .  A
C2855      C2859   1.518       .  S
C2855      C2856   1.412       .  A
C2856      H2860   1.083       .  S
C2857      F2870   1.385       .  S
C2857      F2871   1.382       .  S
C2857      F2872   1.381       .  S
C2859      F2867   1.384       .  S
C2859      F2868   1.383       .  S
C2859      F2869   1.384       .  S
C2873      C2874   1.390       .  A
C2873      C2878   1.403       .  A
C2873      H2883   1.087       .  S
C2874      C2879   1.507       .  S
C2874      C2875   1.419       .  A
C2875      C2880   1.516       .  S
C2875      C2876   1.420       .  A
C2876      C2877   1.427       .  A
C2876      H2881   1.076       .  S
C2877      C2878   1.454       .  A
C2878      C2882   1.525       .  S
C2879      C2884   1.424       .  A
C2879      C2888   1.408       .  A
C2880      F2896   1.380       .  S
C2880      F2897   1.384       .  S
C2880      F2898   1.384       .  S
C2882      F2893   1.385       .  S
C2882      F2894   1.364       .  S
C2882      F2895   1.377       .  S
C2884      C2889   1.518       .  S
C2884      C2885   1.417       .  A
C2885      C2886   1.409       .  A
C2885      H2890   1.084       .  S
C2886      C2887   1.422       .  A
C2887      C2891   1.522       .  S
C2887      C2888   1.408       .  A
C2888      H2892   1.086       .  S
C2889      F2902   1.383       .  S
C2889      F2903   1.383       .  S
C2889      F2904   1.379       .  S
C2891      F2899   1.383       .  S
C2891      F2900   1.377       .  S
C2891      F2901   1.384       .  S
C2905      C2906   1.393       .  A
C2905      C2910   1.421       .  A
C2905      H2915   1.082       .  S
C2906      C2911   1.509       .  S
C2906      C2907   1.408       .  A
C2907      C2912   1.519       .  S
C2907      C2908   1.413       .  A
C2908      C2909   1.427       .  A
C2908      H2913   1.081       .  S
C2909      C2910   1.469       .  A
C2910      C2914   1.548       .  S
C2911      C2916   1.408       .  A
C2911      C2920   1.394       .  A
C2912      F2928   1.381       .  S
C2912      F2929   1.383       .  S
C2912      F2930   1.384       .  S
C2914      F2925   1.387       .  S
C2914      F2926   1.373       .  S
C2914      F2927   1.369       .  S
C2916      C2921   1.523       .  S
C2916      C2917   1.410       .  A
C2917      C2918   1.431       .  A
C2917      H2922   1.071       .  S
C2918      C2919   1.464       .  A
C2919      C2923   1.536       .  S
C2919      C2920   1.424       .  A
C2920      H2924   1.081       .  S
C2921      F2934   1.385       .  S
C2921      F2935   1.381       .  S
C2921      F2936   1.382       .  S
C2923      F2931   1.376       .  S
C2923      F2932   1.367       .  S
C2923      F2933   1.385       .  S
C2937      C2938   1.394       .  A
C2937      C2942   1.413       .  A
C2937      H2947   1.085       .  S
C2938      C2943   1.490       .  S
C2938      C2939   1.405       .  A
C2939      C2944   1.524       .  S
C2939      C2940   1.405       .  A
C2940      C2941   1.425       .  A
C2940      H2945   1.063       .  S
C2941      C2942   1.452       .  A
C2942      C2946   1.527       .  S
C2943      C2948   1.412       .  A
C2943      C2952   1.402       .  A
C2944      F2960   1.382       .  S
C2944      F2961   1.383       .  S
C2944      F2962   1.384       .  S
C2946      F2957   1.380       .  S
C2946      F2958   1.386       .  S
C2946      F2959   1.378       .  S
C2948      C2953   1.512       .  S
C2948      C2949   1.397       .  A
C2949      C2950   1.406       .  A
C2949      H2954   1.081       .  S
C2950      C2951   1.426       .  A
C2951      C2955   1.519       .  S
C2951      C2952   1.414       .  A
C2952      H2956   1.083       .  S
C2953      F2966   1.385       .  S
C2953      F2967   1.381       .  S
C2953      F2968   1.381       .  S
C2955      F2963   1.383       .  S
C2955      F2964   1.382       .  S
C2955      F2965   1.385       .  S
C2969      C2970   1.398       .  A
C2969      C2974   1.418       .  A
C2969      H2979   1.083       .  S
C2970      C2975   1.495       .  S
C2970      C2971   1.409       .  A
C2971      C2976   1.521       .  S
C2971      C2972   1.408       .  A
C2972      C2973   1.426       .  A
C2972      H2977   1.076       .  S
C2973      C2974   1.444       .  A
C2974      C2978   1.523       .  S
C2975      C2980   1.415       .  A
C2975      C2984   1.404       .  A
C2976      F2992   1.381       .  S
C2976      F2993   1.383       .  S
C2976      F2994   1.385       .  S
C2978      F2989   1.368       .  S
C2978      F2990   1.385       .  S
C2978      F2991   1.378       .  S
C2980      C2985   1.518       .  S
C2980      C2981   1.407       .  A
C2981      C2982   1.408       .  A
C2981      H2986   1.083       .  S
C2982      C2983   1.423       .  A
C2983      C2987   1.517       .  S
C2983      C2984   1.414       .  A
C2984      H2988   1.083       .  S
C2985      F2998   1.385       .  S
C2985      F2999   1.381       .  S
C2985      F3000   1.381       .  S
C2987      F2995   1.382       .  S
C2987      F2996   1.383       .  S
C2987      F2997   1.385       .  S
C3001      C3002   1.388       .  A
C3001      C3006   1.406       .  A
C3001      H3011   1.087       .  S
C3002      C3007   1.495       .  S
C3002      C3003   1.411       .  A
C3003      C3008   1.517       .  S
C3003      C3004   1.415       .  A
C3004      C3005   1.430       .  A
C3004      H3009   1.074       .  S
C3005      C3006   1.454       .  A
C3006      C3010   1.523       .  S
C3007      C3012   1.418       .  A
C3007      C3016   1.402       .  A
C3008      F3024   1.384       .  S
C3008      F3025   1.382       .  S
C3008      F3026   1.383       .  S
C3010      F3021   1.375       .  S
C3010      F3022   1.384       .  S
C3010      F3023   1.367       .  S
C3012      C3017   1.515       .  S
C3012      C3013   1.415       .  A
C3013      C3014   1.405       .  A
C3013      H3018   1.083       .  S
C3014      C3015   1.416       .  A
C3015      C3019   1.511       .  S
C3015      C3016   1.409       .  A
C3016      H3020   1.083       .  S
C3017      F3030   1.384       .  S
C3017      F3031   1.381       .  S
C3017      F3032   1.383       .  S
C3019      F3027   1.382       .  S
C3019      F3028   1.383       .  S
C3019      F3029   1.385       .  S
C3033      C3034   1.392       .  A
C3033      C3038   1.422       .  A
C3033      H3043   1.082       .  S
C3034      C3039   1.499       .  S
C3034      C3035   1.404       .  A
C3035      C3040   1.520       .  S
C3035      C3036   1.409       .  A
C3036      C3037   1.427       .  A
C3036      H3041   1.081       .  S
C3037      C3038   1.467       .  A
C3038      C3042   1.545       .  S
C3039      C3044   1.408       .  A
C3039      C3048   1.400       .  A
C3040      F3056   1.382       .  S
C3040      F3057   1.382       .  S
C3040      F3058   1.384       .  S
C3042      F3053   1.386       .  S
C3042      F3054   1.368       .  S
C3042      F3055   1.373       .  S
C3044      C3049   1.523       .  S
C3044      C3045   1.404       .  A
C3045      C3046   1.426       .  A
C3045      H3050   1.071       .  S
C3046      C3047   1.453       .  A
C3047      C3051   1.531       .  S
C3047      C3048   1.418       .  A
C3048      H3052   1.085       .  S
C3049      F3062   1.385       .  S
C3049      F3063   1.382       .  S
C3049      F3064   1.379       .  S
C3051      F3059   1.382       .  S
C3051      F3060   1.376       .  S
C3051      F3061   1.383       .  S
C3065      C3066   1.406       .  A
C3065      C3070   1.417       .  A
C3065      H3075   1.083       .  S
C3066      C3071   1.495       .  S
C3066      C3067   1.420       .  A
C3067      C3072   1.518       .  S
C3067      C3068   1.400       .  A
C3068      C3069   1.406       .  A
C3068      H3073   1.084       .  S
C3069      C3070   1.425       .  A
C3070      C3074   1.518       .  S
C3071      C3076   1.406       .  A
C3071      C3080   1.394       .  A
C3072      F3088   1.383       .  S
C3072      F3089   1.372       .  S
C3072      F3090   1.384       .  S
C3074      F3085   1.385       .  S
C3074      F3086   1.382       .  S
C3074      F3087   1.383       .  S
C3076      C3081   1.521       .  S
C3076      C3077   1.411       .  A
C3077      C3078   1.425       .  A
C3077      H3082   1.057       .  S
C3078      C3079   1.456       .  A
C3079      C3083   1.530       .  S
C3079      C3080   1.412       .  A
C3080      H3084   1.085       .  S
C3081      F3094   1.385       .  S
C3081      F3095   1.383       .  S
C3081      F3096   1.381       .  S
C3083      F3091   1.385       .  S
C3083      F3092   1.378       .  S
C3083      F3093   1.382       .  S
C3097      C3098   1.406       .  A
C3097      C3102   1.410       .  A
C3097      H3107   1.083       .  S
C3098      C3103   1.493       .  S
C3098      C3099   1.422       .  A
C3099      C3104   1.517       .  S
C3099      C3100   1.410       .  A
C3100      C3101   1.401       .  A
C3100      H3105   1.085       .  S
C3101      C3102   1.414       .  A
C3102      C3106   1.517       .  S
C3103      C3108   1.414       .  A
C3103      C3112   1.387       .  A
C3104      F3120   1.383       .  S
C3104      F3121   1.380       .  S
C3104      F3122   1.383       .  S
C3106      F3117   1.384       .  S
C3106      F3118   1.383       .  S
C3106      F3119   1.383       .  S
C3108      C3113   1.516       .  S
C3108      C3109   1.418       .  A
C3109      C3110   1.425       .  A
C3109      H3114   1.078       .  S
C3110      C3111   1.456       .  A
C3111      C3115   1.526       .  S
C3111      C3112   1.402       .  A
C3112      H3116   1.087       .  S
C3113      F3126   1.382       .  S
C3113      F3127   1.383       .  S
C3113      F3128   1.382       .  S
C3115      F3123   1.385       .  S
C3115      F3124   1.367       .  S
C3115      F3125   1.383       .  S
C3129      C3130   1.399       .  A
C3129      C3134   1.418       .  A
C3129      H3139   1.083       .  S
C3130      C3135   1.488       .  S
C3130      C3131   1.407       .  A
C3131      C3136   1.523       .  S
C3131      C3132   1.401       .  A
C3132      C3133   1.429       .  A
C3132      H3137   1.078       .  S
C3133      C3134   1.439       .  A
C3134      C3138   1.525       .  S
C3135      C3140   1.416       .  A
C3135      C3144   1.403       .  A
C3136      F3152   1.382       .  S
C3136      F3153   1.383       .  S
C3136      F3154   1.385       .  S
C3138      F3149   1.385       .  S
C3138      F3150   1.382       .  S
C3138      F3151   1.371       .  S
C3140      C3145   1.516       .  S
C3140      C3141   1.401       .  A
C3141      C3142   1.403       .  A
C3141      H3146   1.083       .  S
C3142      C3143   1.421       .  A
C3143      C3147   1.518       .  S
C3143      C3144   1.411       .  A
C3144      H3148   1.083       .  S
C3145      F3158   1.385       .  S
C3145      F3159   1.382       .  S
C3145      F3160   1.377       .  S
C3147      F3155   1.383       .  S
C3147      F3156   1.383       .  S
C3147      F3157   1.385       .  S
C3161      C3162   1.395       .  A
C3161      C3166   1.424       .  A
C3161      H3171   1.081       .  S
C3162      C3167   1.518       .  S
C3162      C3163   1.414       .  A
C3163      C3168   1.520       .  S
C3163      C3164   1.414       .  A
C3164      C3165   1.426       .  A
C3164      H3169   1.080       .  S
C3165      C3166   1.463       .  A
C3166      C3170   1.535       .  S
C3167      C3172   1.417       .  A
C3167      C3176   1.398       .  A
C3168      F3184   1.381       .  S
C3168      F3185   1.383       .  S
C3168      F3186   1.385       .  S
C3170      F3181   1.386       .  S
C3170      F3182   1.366       .  S
C3170      F3183   1.375       .  S
C3172      C3177   1.521       .  S
C3172      C3173   1.417       .  A
C3173      C3174   1.429       .  A
C3173      H3178   1.077       .  S
C3174      C3175   1.460       .  A
C3175      C3179   1.536       .  S
C3175      C3176   1.419       .  A
C3176      H3180   1.082       .  S
C3177      F3190   1.385       .  S
C3177      F3191   1.381       .  S
C3177      F3192   1.383       .  S
C3179      F3187   1.386       .  S
C3179      F3188   1.378       .  S
C3179      F3189   1.371       .  S
C3193      C3194   1.396       .  A
C3193      C3198   1.403       .  A
C3193      H3203   1.084       .  S
C3194      C3199   1.484       .  S
C3194      C3195   1.413       .  A
C3195      C3200   1.519       .  S
C3195      C3196   1.411       .  A
C3196      C3197   1.413       .  A
C3196      H3201   1.082       .  S
C3197      C3198   1.430       .  A
C3198      C3202   1.524       .  S
C3199      C3204   1.406       .  A
C3199      C3208   1.390       .  A
C3200      F3216   1.382       .  S
C3200      F3217   1.381       .  S
C3200      F3218   1.384       .  S
C3202      F3213   1.385       .  S
C3202      F3214   1.384       .  S
C3202      F3215   1.383       .  S
C3204      C3209   1.522       .  S
C3204      C3205   1.405       .  A
C3205      C3206   1.426       .  A
C3205      H3210   1.074       .  S
C3206      C3207   1.453       .  A
C3207      C3211   1.528       .  S
C3207      C3208   1.410       .  A
C3208      H3212   1.083       .  S
C3209      F3222   1.385       .  S
C3209      F3223   1.382       .  S
C3209      F3224   1.381       .  S
C3211      F3219   1.374       .  S
C3211      F3220   1.374       .  S
C3211      F3221   1.386       .  S
C3225      C3226   1.403       .  A
C3225      C3230   1.410       .  A
C3225      H3235   1.083       .  S
C3226      C3231   1.496       .  S
C3226      C3227   1.421       .  A
C3227      C3232   1.519       .  S
C3227      C3228   1.413       .  A
C3228      C3229   1.403       .  A
C3228      H3233   1.083       .  S
C3229      C3230   1.418       .  A
C3230      C3234   1.518       .  S
C3231      C3236   1.409       .  A
C3231      C3240   1.398       .  A
C3232      F3248   1.382       .  S
C3232      F3249   1.382       .  S
C3232      F3250   1.385       .  S
C3234      F3245   1.382       .  S
C3234      F3246   1.385       .  S
C3234      F3247   1.383       .  S
C3236      C3241   1.522       .  S
C3236      C3237   1.407       .  A
C3237      C3238   1.424       .  A
C3237      H3242   1.077       .  S
C3238      C3239   1.453       .  A
C3239      C3243   1.531       .  S
C3239      C3240   1.417       .  A
C3240      H3244   1.085       .  S
C3241      F3254   1.384       .  S
C3241      F3255   1.382       .  S
C3241      F3256   1.382       .  S
C3243      F3251   1.378       .  S
C3243      F3252   1.369       .  S
C3243      F3253   1.386       .  S
C3257      C3258   1.399       .  A
C3257      C3262   1.424       .  A
C3257      H3267   1.082       .  S
C3258      C3263   1.508       .  S
C3258      C3259   1.408       .  A
C3259      C3264   1.526       .  S
C3259      C3260   1.413       .  A
C3260      C3261   1.429       .  A
C3260      H3265   1.038       .  S
C3261      C3262   1.458       .  A
C3262      C3266   1.533       .  S
C3263      C3268   1.416       .  A
C3263      C3272   1.409       .  A
C3264      F3280   1.383       .  S
C3264      F3281   1.380       .  S
C3264      F3282   1.385       .  S
C3266      F3277   1.376       .  S
C3266      F3278   1.386       .  S
C3266      F3279   1.378       .  S
C3268      C3273   1.520       .  S
C3268      C3269   1.415       .  A
C3269      C3270   1.408       .  A
C3269      H3274   1.083       .  S
C3270      C3271   1.421       .  A
C3271      C3275   1.518       .  S
C3271      C3272   1.419       .  A
C3272      H3276   1.083       .  S
C3273      F3286   1.384       .  S
C3273      F3287   1.383       .  S
C3273      F3288   1.381       .  S
C3275      F3283   1.383       .  S
C3275      F3284   1.379       .  S
C3275      F3285   1.384       .  S
C3289      C3290   1.409       .  A
C3289      C3294   1.422       .  A
C3289      H3299   1.075       .  S
C3290      C3295   1.524       .  S
C3290      C3291   1.421       .  A
C3291      C3296   1.523       .  S
C3291      C3292   1.406       .  A
C3292      C3293   1.419       .  A
C3292      H3297   1.078       .  S
C3293      C3294   1.445       .  A
C3294      C3298   1.532       .  S
C3295      C3300   1.421       .  A
C3295      C3304   1.402       .  A
C3296      F3312   1.380       .  S
C3296      F3313   1.380       .  S
C3296      F3314   1.385       .  S
C3298      F3309   1.382       .  S
C3298      F3310   1.382       .  S
C3298      F3311   1.376       .  S
C3300      C3305   1.523       .  S
C3300      C3301   1.416       .  A
C3301      C3302   1.424       .  A
C3301      H3306   1.071       .  S
C3302      C3303   1.453       .  A
C3303      C3307   1.529       .  S
C3303      C3304   1.418       .  A
C3304      H3308   1.081       .  S
C3305      F3318   1.385       .  S
C3305      F3319   1.381       .  S
C3305      F3320   1.383       .  S
C3307      F3315   1.380       .  S
C3307      F3316   1.374       .  S
C3307      F3317   1.385       .  S
C3321      C3322   1.384       .  A
C3321      C3326   1.402       .  A
C3321      H3331   1.083       .  S
C3322      C3327   1.488       .  S
C3322      C3323   1.406       .  A
C3323      C3328   1.515       .  S
C3323      C3324   1.416       .  A
C3324      C3325   1.423       .  A
C3324      H3329   1.076       .  S
C3325      C3326   1.455       .  A
C3326      C3330   1.528       .  S
C3327      C3332   1.421       .  A
C3327      C3336   1.406       .  A
C3328      F3344   1.383       .  S
C3328      F3345   1.383       .  S
C3328      F3346   1.384       .  S
C3330      F3341   1.361       .  S
C3330      F3342   1.386       .  S
C3330      F3343   1.370       .  S
C3332      C3337   1.517       .  S
C3332      C3333   1.404       .  A
C3333      C3334   1.399       .  A
C3333      H3338   1.085       .  S
C3334      C3335   1.414       .  A
C3335      C3339   1.517       .  S
C3335      C3336   1.411       .  A
C3336      H3340   1.083       .  S
C3337      F3350   1.384       .  S
C3337      F3351   1.383       .  S
C3337      F3352   1.380       .  S
C3339      F3347   1.384       .  S
C3339      F3348   1.382       .  S
C3339      F3349   1.384       .  S
C3353      C3354   1.395       .  A
C3353      C3358   1.418       .  A
C3353      H3363   1.085       .  S
C3354      C3359   1.501       .  S
C3354      C3355   1.407       .  A
C3355      C3360   1.522       .  S
C3355      C3356   1.413       .  A
C3356      C3357   1.432       .  A
C3356      H3361   1.065       .  S
C3357      C3358   1.455       .  A
C3358      C3362   1.526       .  S
C3359      C3364   1.420       .  A
C3359      C3368   1.406       .  A
C3360      F3376   1.382       .  S
C3360      F3377   1.382       .  S
C3360      F3378   1.384       .  S
C3362      F3373   1.380       .  S
C3362      F3374   1.385       .  S
C3362      F3375   1.369       .  S
C3364      C3369   1.515       .  S
C3364      C3365   1.401       .  A
C3365      C3366   1.404       .  A
C3365      H3370   1.082       .  S
C3366      C3367   1.423       .  A
C3367      C3371   1.514       .  S
C3367      C3368   1.418       .  A
C3368      H3372   1.083       .  S
C3369      F3382   1.385       .  S
C3369      F3383   1.382       .  S
C3369      F3384   1.380       .  S
C3371      F3379   1.383       .  S
C3371      F3380   1.381       .  S
C3371      F3381   1.385       .  S
C3385      C3386   1.390       .  A
C3385      C3390   1.405       .  A
C3385      H3395   1.086       .  S
C3386      C3391   1.479       .  S
C3386      C3387   1.406       .  A
C3387      C3392   1.516       .  S
C3387      C3388   1.405       .  A
C3388      C3389   1.425       .  A
C3388      H3393   1.082       .  S
C3389      C3390   1.458       .  A
C3390      C3394   1.532       .  S
C3391      C3396   1.414       .  A
C3391      C3400   1.401       .  A
C3392      F3408   1.383       .  S
C3392      F3409   1.383       .  S
C3392      F3410   1.383       .  S
C3394      F3405   1.386       .  S
C3394      F3406   1.384       .  S
C3394      F3407   1.365       .  S
C3396      C3401   1.517       .  S
C3396      C3397   1.403       .  A
C3397      C3398   1.405       .  A
C3397      H3402   1.084       .  S
C3398      C3399   1.422       .  A
C3399      C3403   1.520       .  S
C3399      C3400   1.407       .  A
C3400      H3404   1.084       .  S
C3401      F3414   1.384       .  S
C3401      F3415   1.383       .  S
C3401      F3416   1.382       .  S
C3403      F3411   1.385       .  S
C3403      F3412   1.383       .  S
C3403      F3413   1.384       .  S
C3417      C3418   1.398       .  A
C3417      C3422   1.420       .  A
C3417      H3427   1.083       .  S
C3418      C3423   1.497       .  S
C3418      C3419   1.405       .  A
C3419      C3424   1.523       .  S
C3419      C3420   1.408       .  A
C3420      C3421   1.433       .  A
C3420      H3425   1.076       .  S
C3421      C3422   1.448       .  A
C3422      C3426   1.526       .  S
C3423      C3428   1.403       .  A
C3423      C3432   1.392       .  A
C3424      F3440   1.382       .  S
C3424      F3441   1.381       .  S
C3424      F3442   1.385       .  S
C3426      F3437   1.367       .  S
C3426      F3438   1.385       .  S
C3426      F3439   1.378       .  S
C3428      C3433   1.522       .  S
C3428      C3429   1.409       .  A
C3429      C3430   1.435       .  A
C3429      H3434   1.073       .  S
C3430      C3431   1.462       .  A
C3431      C3435   1.535       .  S
C3431      C3432   1.420       .  A
C3432      H3436   1.082       .  S
C3433      F3446   1.384       .  S
C3433      F3447   1.382       .  S
C3433      F3448   1.381       .  S
C3435      F3443   1.386       .  S
C3435      F3444   1.373       .  S
C3435      F3445   1.372       .  S
C3449      C3450   1.384       .  A
C3449      C3454   1.403       .  A
C3449      H3459   1.087       .  S
C3450      C3455   1.494       .  S
C3450      C3451   1.408       .  A
C3451      C3456   1.517       .  S
C3451      C3452   1.419       .  A
C3452      C3453   1.430       .  A
C3452      H3457   1.075       .  S
C3453      C3454   1.456       .  A
C3454      C3458   1.525       .  S
C3455      C3460   1.421       .  A
C3455      C3464   1.406       .  A
C3456      F3472   1.382       .  S
C3456      F3473   1.381       .  S
C3456      F3474   1.385       .  S
C3458      F3469   1.380       .  S
C3458      F3470   1.384       .  S
C3458      F3471   1.362       .  S
C3460      C3465   1.521       .  S
C3460      C3461   1.411       .  A
C3461      C3462   1.402       .  A
C3461      H3466   1.083       .  S
C3462      C3463   1.414       .  A
C3463      C3467   1.517       .  S
C3463      C3464   1.412       .  A
C3464      H3468   1.083       .  S
C3465      F3478   1.384       .  S
C3465      F3479   1.382       .  S
C3465      F3480   1.381       .  S
C3467      F3475   1.383       .  S
C3467      F3476   1.383       .  S
C3467      F3477   1.384       .  S
C3481      C3482   1.399       .  A
C3481      C3486   1.421       .  A
C3481      H3491   1.082       .  S
C3482      C3487   1.498       .  S
C3482      C3483   1.407       .  A
C3483      C3488   1.522       .  S
C3483      C3484   1.406       .  A
C3484      C3485   1.426       .  A
C3484      H3489   1.073       .  S
C3485      C3486   1.451       .  A
C3486      C3490   1.532       .  S
C3487      C3492   1.416       .  A
C3487      C3496   1.406       .  A
C3488      F3504   1.382       .  S
C3488      F3505   1.383       .  S
C3488      F3506   1.385       .  S
C3490      F3501   1.385       .  S
C3490      F3502   1.380       .  S
C3490      F3503   1.376       .  S
C3492      C3497   1.517       .  S
C3492      C3493   1.405       .  A
C3493      C3494   1.405       .  A
C3493      H3498   1.083       .  S
C3494      C3495   1.421       .  A
C3495      C3499   1.517       .  S
C3495      C3496   1.417       .  A
C3496      H3500   1.083       .  S
C3497      F3510   1.384       .  S
C3497      F3511   1.381       .  S
C3497      F3512   1.379       .  S
C3499      F3507   1.385       .  S
C3499      F3508   1.383       .  S
C3499      F3509   1.384       .  S
C3513      C3514   1.391       .  A
C3513      C3518   1.412       .  A
C3513      H3523   1.085       .  S
C3514      C3519   1.492       .  S
C3514      C3515   1.403       .  A
C3515      C3520   1.521       .  S
C3515      C3516   1.409       .  A
C3516      C3517   1.428       .  A
C3516      H3521   1.067       .  S
C3517      C3518   1.456       .  A
C3518      C3522   1.528       .  S
C3519      C3524   1.412       .  A
C3519      C3528   1.405       .  A
C3520      F3536   1.382       .  S
C3520      F3537   1.382       .  S
C3520      F3538   1.384       .  S
C3522      F3533   1.382       .  S
C3522      F3534   1.386       .  S
C3522      F3535   1.370       .  S
C3524      C3529   1.517       .  S
C3524      C3525   1.398       .  A
C3525      C3526   1.408       .  A
C3525      H3530   1.082       .  S
C3526      C3527   1.424       .  A
C3527      C3531   1.516       .  S
C3527      C3528   1.418       .  A
C3528      H3532   1.083       .  S
C3529      F3542   1.385       .  S
C3529      F3543   1.382       .  S
C3529      F3544   1.381       .  S
C3531      F3539   1.385       .  S
C3531      F3540   1.383       .  S
C3531      F3541   1.383       .  S
C3545      C3546   1.399       .  A
C3545      C3550   1.419       .  A
C3545      H3555   1.082       .  S
C3546      C3551   1.503       .  S
C3546      C3547   1.408       .  A
C3547      C3552   1.521       .  S
C3547      C3548   1.410       .  A
C3548      C3549   1.430       .  A
C3548      H3553   1.074       .  S
C3549      C3550   1.452       .  A
C3550      C3554   1.534       .  S
C3551      C3556   1.412       .  A
C3551      C3560   1.389       .  A
C3552      F3568   1.382       .  S
C3552      F3569   1.379       .  S
C3552      F3570   1.385       .  S
C3554      F3565   1.385       .  S
C3554      F3566   1.380       .  S
C3554      F3567   1.373       .  S
C3556      C3561   1.518       .  S
C3556      C3557   1.417       .  A
C3557      C3558   1.429       .  A
C3557      H3562   1.073       .  S
C3558      C3559   1.460       .  A
C3559      C3563   1.530       .  S
C3559      C3560   1.410       .  A
C3560      H3564   1.085       .  S
C3561      F3574   1.383       .  S
C3561      F3575   1.383       .  S
C3561      F3576   1.382       .  S
C3563      F3571   1.387       .  S
C3563      F3572   1.370       .  S
C3563      F3573   1.381       .  S
C3577      C3578   1.398       .  A
C3577      C3582   1.423       .  A
C3577      H3587   1.083       .  S
C3578      C3583   1.493       .  S
C3578      C3579   1.404       .  A
C3579      C3584   1.524       .  S
C3579      C3580   1.399       .  A
C3580      C3581   1.429       .  A
C3580      H3585   1.076       .  S
C3581      C3582   1.455       .  A
C3582      C3586   1.530       .  S
C3583      C3588   1.418       .  A
C3583      C3592   1.403       .  A
C3584      F3600   1.382       .  S
C3584      F3601   1.383       .  S
C3584      F3602   1.385       .  S
C3586      F3597   1.378       .  S
C3586      F3598   1.386       .  S
C3586      F3599   1.375       .  S
C3588      C3593   1.517       .  S
C3588      C3589   1.411       .  A
C3589      C3590   1.402       .  A
C3589      H3594   1.083       .  S
C3590      C3591   1.416       .  A
C3591      C3595   1.518       .  S
C3591      C3592   1.408       .  A
C3592      H3596   1.083       .  S
C3593      F3606   1.385       .  S
C3593      F3607   1.382       .  S
C3593      F3608   1.381       .  S
C3595      F3603   1.385       .  S
C3595      F3604   1.383       .  S
C3595      F3605   1.382       .  S
C3609      C3610   1.386       .  A
C3609      C3614   1.412       .  A
C3609      H3619   1.083       .  S
C3610      C3615   1.488       .  S
C3610      C3611   1.400       .  A
C3611      C3616   1.518       .  S
C3611      C3612   1.408       .  A
C3612      C3613   1.431       .  A
C3612      H3617   1.075       .  S
C3613      C3614   1.462       .  A
C3614      C3618   1.524       .  S
C3615      C3620   1.417       .  A
C3615      C3624   1.403       .  A
C3616      F3632   1.382       .  S
C3616      F3633   1.383       .  S
C3616      F3634   1.384       .  S
C3618      F3629   1.373       .  S
C3618      F3630   1.387       .  S
C3618      F3631   1.368       .  S
C3620      C3625   1.517       .  S
C3620      C3621   1.409       .  A
C3621      C3622   1.406       .  A
C3621      H3626   1.084       .  S
C3622      C3623   1.421       .  A
C3623      C3627   1.519       .  S
C3623      C3624   1.406       .  A
C3624      H3628   1.084       .  S
C3625      F3638   1.383       .  S
C3625      F3639   1.383       .  S
C3625      F3640   1.383       .  S
C3627      F3635   1.382       .  S
C3627      F3636   1.384       .  S
C3627      F3637   1.385       .  S
C3641      C3642   1.400       .  A
C3641      C3646   1.425       .  A
C3641      H3651   1.082       .  S
C3642      C3647   1.497       .  S
C3642      C3643   1.407       .  A
C3643      C3648   1.523       .  S
C3643      C3644   1.404       .  A
C3644      C3645   1.428       .  A
C3644      H3649   1.076       .  S
C3645      C3646   1.448       .  A
C3646      C3650   1.526       .  S
C3647      C3652   1.420       .  A
C3647      C3656   1.408       .  A
C3648      F3664   1.382       .  S
C3648      F3665   1.383       .  S
C3648      F3666   1.384       .  S
C3650      F3661   1.371       .  S
C3650      F3662   1.385       .  S
C3650      F3663   1.379       .  S
C3652      C3657   1.513       .  S
C3652      C3653   1.400       .  A
C3653      C3654   1.397       .  A
C3653      H3658   1.084       .  S
C3654      C3655   1.417       .  A
C3655      C3659   1.516       .  S
C3655      C3656   1.415       .  A
C3656      H3660   1.083       .  S
C3657      F3670   1.385       .  S
C3657      F3671   1.380       .  S
C3657      F3672   1.379       .  S
C3659      F3667   1.383       .  S
C3659      F3668   1.383       .  S
C3659      F3669   1.385       .  S
C3673      C3674   1.394       .  A
C3673      C3678   1.415       .  A
C3673      H3683   1.082       .  S
C3674      C3679   1.505       .  S
C3674      C3675   1.415       .  A
C3675      C3680   1.520       .  S
C3675      C3676   1.415       .  A
C3676      C3677   1.421       .  A
C3676      H3681   1.073       .  S
C3677      C3678   1.454       .  A
C3678      C3682   1.531       .  S
C3679      C3684   1.411       .  A
C3679      C3688   1.394       .  A
C3680      F3696   1.381       .  S
C3680      F3697   1.383       .  S
C3680      F3698   1.385       .  S
C3682      F3693   1.380       .  S
C3682      F3694   1.385       .  S
C3682      F3695   1.375       .  S
C3684      C3689   1.519       .  S
C3684      C3685   1.409       .  A
C3685      C3686   1.425       .  A
C3685      H3690   1.083       .  S
C3686      C3687   1.465       .  A
C3687      C3691   1.540       .  S
C3687      C3688   1.420       .  A
C3688      H3692   1.082       .  S
C3689      F3702   1.384       .  S
C3689      F3703   1.383       .  S
C3689      F3704   1.382       .  S
C3691      F3699   1.380       .  S
C3691      F3700   1.375       .  S
C3691      F3701   1.387       .  S
C3705      C3706   1.388       .  A
C3705      C3710   1.406       .  A
C3705      H3715   1.086       .  S
C3706      C3711   1.496       .  S
C3706      C3707   1.410       .  A
C3707      C3712   1.518       .  S
C3707      C3708   1.416       .  A
C3708      C3709   1.427       .  A
C3708      H3713   1.073       .  S
C3709      C3710   1.456       .  A
C3710      C3714   1.532       .  S
C3711      C3716   1.421       .  A
C3711      C3720   1.405       .  A
C3712      F3728   1.382       .  S
C3712      F3729   1.382       .  S
C3712      F3730   1.385       .  S
C3714      F3725   1.386       .  S
C3714      F3726   1.383       .  S
C3714      F3727   1.368       .  S
C3716      C3721   1.518       .  S
C3716      C3717   1.411       .  A
C3717      C3718   1.402       .  A
C3717      H3722   1.084       .  S
C3718      C3719   1.416       .  A
C3719      C3723   1.516       .  S
C3719      C3720   1.413       .  A
C3720      H3724   1.083       .  S
C3721      F3734   1.385       .  S
C3721      F3735   1.382       .  S
C3721      F3736   1.383       .  S
C3723      F3731   1.383       .  S
C3723      F3732   1.383       .  S
C3723      F3733   1.385       .  S
C3737      C3738   1.400       .  A
C3737      C3742   1.413       .  A
C3737      H3747   1.082       .  S
C3738      C3743   1.490       .  S
C3738      C3739   1.410       .  A
C3739      C3744   1.518       .  S
C3739      C3740   1.401       .  A
C3740      C3741   1.428       .  A
C3740      H3745   1.081       .  S
C3741      C3742   1.441       .  A
C3742      C3746   1.518       .  S
C3743      C3748   1.414       .  A
C3743      C3752   1.398       .  A
C3744      F3760   1.383       .  S
C3744      F3761   1.382       .  S
C3744      F3762   1.384       .  S
C3746      F3757   1.384       .  S
C3746      F3758   1.382       .  S
C3746      F3759   1.366       .  S
C3748      C3753   1.518       .  S
C3748      C3749   1.414       .  A
C3749      C3750   1.413       .  A
C3749      H3754   1.082       .  S
C3750      C3751   1.432       .  A
C3751      C3755   1.525       .  S
C3751      C3752   1.404       .  A
C3752      H3756   1.082       .  S
C3753      F3766   1.384       .  S
C3753      F3767   1.381       .  S
C3753      F3768   1.383       .  S
C3755      F3763   1.383       .  S
C3755      F3764   1.384       .  S
C3755      F3765   1.385       .  S
C3769      C3770   1.394       .  A
C3769      C3774   1.411       .  A
C3769      H3779   1.085       .  S
C3770      C3775   1.487       .  S
C3770      C3771   1.407       .  A
C3771      C3776   1.523       .  S
C3771      C3772   1.403       .  A
C3772      C3773   1.421       .  A
C3772      H3777   1.069       .  S
C3773      C3774   1.453       .  A
C3774      C3778   1.529       .  S
C3775      C3780   1.414       .  A
C3775      C3784   1.398       .  A
C3776      F3792   1.383       .  S
C3776      F3793   1.382       .  S
C3776      F3794   1.383       .  S
C3778      F3789   1.386       .  S
C3778      F3790   1.382       .  S
C3778      F3791   1.376       .  S
C3780      C3785   1.518       .  S
C3780      C3781   1.411       .  A
C3781      C3782   1.410       .  A
C3781      H3786   1.082       .  S
C3782      C3783   1.431       .  A
C3783      C3787   1.523       .  S
C3783      C3784   1.406       .  A
C3784      H3788   1.083       .  S
C3785      F3798   1.384       .  S
C3785      F3799   1.382       .  S
C3785      F3800   1.384       .  S
C3787      F3795   1.385       .  S
C3787      F3796   1.383       .  S
C3787      F3797   1.384       .  S
C3801      C3802   1.394       .  A
C3801      C3806   1.420       .  A
C3801      H3811   1.083       .  S
C3802      C3807   1.503       .  S
C3802      C3803   1.408       .  A
C3803      C3808   1.519       .  S
C3803      C3804   1.410       .  A
C3804      C3805   1.426       .  A
C3804      H3809   1.078       .  S
C3805      C3806   1.464       .  A
C3806      C3810   1.539       .  S
C3807      C3812   1.411       .  A
C3807      C3816   1.400       .  A
C3808      F3824   1.382       .  S
C3808      F3825   1.379       .  S
C3808      F3826   1.385       .  S
C3810      F3821   1.374       .  S
C3810      F3822   1.386       .  S
C3810      F3823   1.375       .  S
C3812      C3817   1.520       .  S
C3812      C3813   1.416       .  A
C3813      C3814   1.425       .  A
C3813      H3818   1.074       .  S
C3814      C3815   1.448       .  A
C3815      C3819   1.527       .  S
C3815      C3816   1.418       .  A
C3816      H3820   1.085       .  S
C3817      F3830   1.385       .  S
C3817      F3831   1.383       .  S
C3817      F3832   1.380       .  S
C3819      F3827   1.386       .  S
C3819      F3828   1.372       .  S
C3819      F3829   1.382       .  S
C3833      C3834   1.393       .  A
C3833      C3838   1.414       .  A
C3833      H3843   1.083       .  S
C3834      C3839   1.489       .  S
C3834      C3835   1.404       .  A
C3835      C3840   1.517       .  S
C3835      C3836   1.404       .  A
C3836      C3837   1.429       .  A
C3836      H3841   1.083       .  S
C3837      C3838   1.455       .  A
C3838      C3842   1.523       .  S
C3839      C3844   1.413       .  A
C3839      C3848   1.403       .  A
C3840      F3856   1.383       .  S
C3840      F3857   1.382       .  S
C3840      F3858   1.384       .  S
C3842      F3853   1.370       .  S
C3842      F3854   1.386       .  S
C3842      F3855   1.358       .  S
C3844      C3849   1.517       .  S
C3844      C3845   1.407       .  A
C3845      C3846   1.406       .  A
C3845      H3850   1.083       .  S
C3846      C3847   1.423       .  A
C3847      C3851   1.520       .  S
C3847      C3848   1.409       .  A
C3848      H3852   1.082       .  S
C3849      F3862   1.384       .  S
C3849      F3863   1.382       .  S
C3849      F3864   1.383       .  S
C3851      F3859   1.382       .  S
C3851      F3860   1.384       .  S
C3851      F3861   1.385       .  S
C3865      C3866   1.403       .  A
C3865      C3870   1.427       .  A
C3865      H3875   1.083       .  S
C3866      C3871   1.497       .  S
C3866      C3867   1.409       .  A
C3867      C3872   1.522       .  S
C3867      C3868   1.406       .  A
C3868      C3869   1.426       .  A
C3868      H3873   1.075       .  S
C3869      C3870   1.445       .  A
C3870      C3874   1.527       .  S
C3871      C3876   1.420       .  A
C3871      C3880   1.407       .  A
C3872      F3888   1.382       .  S
C3872      F3889   1.382       .  S
C3872      F3890   1.385       .  S
C3874      F3885   1.385       .  S
C3874      F3886   1.381       .  S
C3874      F3887   1.370       .  S
C3876      C3881   1.512       .  S
C3876      C3877   1.400       .  A
C3877      C3878   1.398       .  A
C3877      H3882   1.083       .  S
C3878      C3879   1.418       .  A
C3879      C3883   1.516       .  S
C3879      C3880   1.414       .  A
C3880      H3884   1.083       .  S
C3881      F3894   1.385       .  S
C3881      F3895   1.381       .  S
C3881      F3896   1.379       .  S
C3883      F3891   1.383       .  S
C3883      F3892   1.383       .  S
C3883      F3893   1.384       .  S
C3897      C3898   1.388       .  A
C3897      C3902   1.405       .  A
C3897      H3907   1.083       .  S
C3898      C3903   1.493       .  S
C3898      C3899   1.408       .  A
C3899      C3904   1.518       .  S
C3899      C3900   1.415       .  A
C3900      C3901   1.427       .  A
C3900      H3905   1.076       .  S
C3901      C3902   1.457       .  A
C3902      C3906   1.528       .  S
C3903      C3908   1.419       .  A
C3903      C3912   1.403       .  A
C3904      F3920   1.381       .  S
C3904      F3921   1.383       .  S
C3904      F3922   1.384       .  S
C3906      F3917   1.377       .  S
C3906      F3918   1.386       .  S
C3906      F3919   1.359       .  S
C3908      C3913   1.517       .  S
C3908      C3909   1.405       .  A
C3909      C3910   1.403       .  A
C3909      H3914   1.084       .  S
C3910      C3911   1.421       .  A
C3911      C3915   1.510       .  S
C3911      C3912   1.409       .  A
C3912      H3916   1.084       .  S
C3913      F3926   1.385       .  S
C3913      F3927   1.382       .  S
C3913      F3928   1.383       .  S
C3915      F3923   1.382       .  S
C3915      F3924   1.378       .  S
C3915      F3925   1.384       .  S
C3929      C3930   1.392       .  A
C3929      C3934   1.417       .  A
C3929      H3939   1.083       .  S
C3930      C3935   1.504       .  S
C3930      C3931   1.409       .  A
C3931      C3936   1.519       .  S
C3931      C3932   1.416       .  A
C3932      C3933   1.428       .  A
C3932      H3937   1.082       .  S
C3933      C3934   1.463       .  A
C3934      C3938   1.538       .  S
C3935      C3940   1.412       .  A
C3935      C3944   1.395       .  A
C3936      F3952   1.382       .  S
C3936      F3953   1.379       .  S
C3936      F3954   1.385       .  S
C3938      F3949   1.387       .  S
C3938      F3950   1.379       .  S
C3938      F3951   1.368       .  S
C3940      C3945   1.523       .  S
C3940      C3941   1.416       .  A
C3941      C3942   1.431       .  A
C3941      H3946   1.081       .  S
C3942      C3943   1.452       .  A
C3943      C3947   1.519       .  S
C3943      C3944   1.420       .  A
C3944      H3948   1.083       .  S
C3945      F3958   1.385       .  S
C3945      F3959   1.382       .  S
C3945      F3960   1.379       .  S
C3947      F3955   1.375       .  S
C3947      F3956   1.378       .  S
C3947      F3957   1.386       .  S
C3961      C3962   1.397       .  A
C3961      C3966   1.404       .  A
C3961      H3971   1.085       .  S
C3962      C3967   1.485       .  S
C3962      C3963   1.414       .  A
C3963      C3968   1.520       .  S
C3963      C3964   1.409       .  A
C3964      C3965   1.423       .  A
C3964      H3969   1.076       .  S
C3965      C3966   1.426       .  A
C3966      C3970   1.514       .  S
C3967      C3972   1.412       .  A
C3967      C3976   1.399       .  A
C3968      F3984   1.382       .  S
C3968      F3985   1.382       .  S
C3968      F3986   1.385       .  S
C3970      F3981   1.379       .  S
C3970      F3982   1.387       .  S
C3970      F3983   1.376       .  S
C3972      C3977   1.515       .  S
C3972      C3973   1.407       .  A
C3973      C3974   1.409       .  A
C3973      H3978   1.082       .  S
C3974      C3975   1.427       .  A
C3975      C3979   1.521       .  S
C3975      C3976   1.407       .  A
C3976      H3980   1.083       .  S
C3977      F3990   1.385       .  S
C3977      F3991   1.382       .  S
C3977      F3992   1.381       .  S
C3979      F3987   1.384       .  S
C3979      F3988   1.383       .  S
C3979      F3989   1.385       .  S
C3993      C3994   1.394       .  A
C3993      C3998   1.413       .  A
C3993      H4003   1.085       .  S
C3994      C3999   1.486       .  S
C3994      C3995   1.407       .  A
C3995      C4000   1.523       .  S
C3995      C3996   1.403       .  A
C3996      C3997   1.429       .  A
C3996      H4001   1.082       .  S
C3997      C3998   1.452       .  A
C3998      C4002   1.530       .  S
C3999      C4004   1.418       .  A
C3999      C4008   1.398       .  A
C4000      F4016   1.381       .  S
C4000      F4017   1.382       .  S
C4000      F4018   1.382       .  S
C4002      F4013   1.372       .  S
C4002      F4014   1.381       .  S
C4002      F4015   1.387       .  S
C4004      C4009   1.518       .  S
C4004      C4005   1.412       .  A
C4005      C4006   1.404       .  A
C4005      H4010   1.081       .  S
C4006      C4007   1.415       .  A
C4007      C4011   1.510       .  S
C4007      C4008   1.403       .  A
C4008      H4012   1.084       .  S
C4009      F4022   1.385       .  S
C4009      F4023   1.382       .  S
C4009      F4024   1.383       .  S
C4011      F4019   1.379       .  S
C4011      F4020   1.383   1_554  S
C4011      F4021   1.385       .  S
C4025      C4026   1.391       .  A
C4025      C4030   1.416       .  A
C4025      H4035   1.085       .  S
C4026      C4031   1.487       .  S
C4026      C4027   1.404       .  A
C4027      C4032   1.522       .  S
C4027      C4028   1.405       .  A
C4028      C4029   1.426       .  A
C4028      H4033   1.074       .  S
C4029      C4030   1.456       .  A
C4030      C4034   1.531       .  S
C4031      C4036   1.416       .  A
C4031      C4040   1.398       .  A
C4032      F4048   1.382       .  S
C4032      F4049   1.381       .  S
C4032      F4050   1.384       .  S
C4034      F4045   1.383       .  S
C4034      F4046   1.385       .  S
C4034      F4047   1.361       .  S
C4036      C4041   1.518       .  S
C4036      C4037   1.413       .  A
C4037      C4038   1.407       .  A
C4037      H4042   1.083       .  S
C4038      C4039   1.424       .  A
C4039      C4043   1.521       .  S
C4039      C4040   1.404       .  A
C4040      H4044   1.084       .  S
C4041      F4054   1.384       .  S
C4041      F4055   1.382       .  S
C4041      F4056   1.381       .  S
C4043      F4051   1.385       .  S
C4043      F4052   1.384       .  S
C4043      F4053   1.383       .  S
C4057      C4058   1.398       .  A
C4057      C4062   1.411       .  A
C4057      H4067   1.082       .  S
C4058      C4063   1.503       .  S
C4058      C4059   1.414       .  A
C4059      C4064   1.523       .  S
C4059      C4060   1.407       .  A
C4060      C4061   1.424       .  A
C4060      H4065   1.065       .  S
C4061      C4062   1.452       .  A
C4062      C4066   1.530       .  S
C4063      C4068   1.415       .  A
C4063      C4072   1.402       .  A
C4064      F4080   1.383       .  S
C4064      F4081   1.382       .  S
C4064      F4082   1.385       .  S
C4066      F4077   1.385       .  S
C4066      F4078   1.381       .  S
C4066      F4079   1.373       .  S
C4068      C4073   1.524       .  S
C4068      C4069   1.407       .  A
C4069      C4070   1.427       .  A
C4069      H4074   1.075       .  S
C4070      C4071   1.444       .  A
C4071      C4075   1.532       .  S
C4071      C4072   1.416       .  A
C4072      H4076   1.082       .  S
C4073      F4086   1.385       .  S
C4073      F4087   1.381       .  S
C4073      F4088   1.383       .  S
C4075      F4083   1.385       .  S
C4075      F4084   1.375       .  S
C4075      F4085   1.379       .  S
C4089      C4090   1.399       .  A
C4089      C4094   1.407       .  A
C4089      H4099   1.085       .  S
C4090      C4095   1.486       .  S
C4090      C4091   1.411       .  A
C4091      C4096   1.518       .  S
C4091      C4092   1.407       .  A
C4092      C4093   1.425       .  A
C4092      H4097   1.075       .  S
C4093      C4094   1.426       .  A
C4094      C4098   1.513       .  S
C4095      C4100   1.418       .  A
C4095      C4104   1.401       .  A
C4096      F4112   1.383       .  S
C4096      F4113   1.383       .  S
C4096      F4114   1.384       .  S
C4098      F4109   1.386       .  S
C4098      F4110   1.380       .  S
C4098      F4111   1.376       .  S
C4100      C4105   1.520       .  S
C4100      C4101   1.405       .  A
C4101      C4102   1.405       .  A
C4101      H4106   1.084       .  S
C4102      C4103   1.425       .  A
C4103      C4107   1.520       .  S
C4103      C4104   1.411       .  A
C4104      H4108   1.083       .  S
C4105      F4118   1.384       .  S
C4105      F4119   1.383       .  S
C4105      F4120   1.380       .  S
C4107      F4115   1.385       .  S
C4107      F4116   1.382       .  S
C4107      F4117   1.384       .  S
C4121      C4122   1.398       .  A
C4121      C4126   1.417       .  A
C4121      H4131   1.084       .  S
C4122      C4127   1.491       .  S
C4122      C4123   1.406       .  A
C4123      C4128   1.521       .  S
C4123      C4124   1.404       .  A
C4124      C4125   1.429       .  A
C4124      H4129   1.076       .  S
C4125      C4126   1.444       .  A
C4126      C4130   1.530       .  S
C4127      C4132   1.415       .  A
C4127      C4136   1.401       .  A
C4128      F4144   1.383       .  S
C4128      F4145   1.382       .  S
C4128      F4146   1.384       .  S
C4130      F4141   1.384       .  S
C4130      F4142   1.384       .  S
C4130      F4143   1.370       .  S
C4132      C4137   1.519       .  S
C4132      C4133   1.409       .  A
C4133      C4134   1.407       .  A
C4133      H4138   1.082       .  S
C4134      C4135   1.426       .  A
C4135      C4139   1.520       .  S
C4135      C4136   1.413       .  A
C4136      H4140   1.083       .  S
C4137      F4150   1.384       .  S
C4137      F4151   1.382       .  S
C4137      F4152   1.382       .  S
C4139      F4147   1.382       .  S
C4139      F4148   1.384       .  S
C4139      F4149   1.385       .  S
C4153      C4154   1.399       .  A
C4153      C4158   1.421       .  A
C4153      H4163   1.083       .  S
C4154      C4159   1.484       .  S
C4154      C4155   1.402       .  A
C4155      C4160   1.523       .  S
C4155      C4156   1.393       .  A
C4156      C4157   1.429       .  A
C4156      H4161   1.082       .  S
C4157      C4158   1.454       .  A
C4158      C4162   1.534       .  S
C4159      C4164   1.419       .  A
C4159      C4168   1.404       .  A
C4160      F4176   1.382       .  S
C4160      F4177   1.381       .  S
C4160      F4178   1.384       .  S
C4162      F4173   1.375       .  S
C4162      F4174   1.376       .  S
C4162      F4175   1.386       .  S
C4164      C4169   1.520       .  S
C4164      C4165   1.406       .  A
C4165      C4166   1.402       .  A
C4165      H4170   1.084       .  S
C4166      C4167   1.413       .  A
C4167      C4171   1.515       .  S
C4167      C4168   1.407       .  A
C4168      H4172   1.083       .  S
C4169      F4182   1.383       .  S
C4169      F4183   1.382       .  S
C4169      F4184   1.383       .  S
C4171      F4179   1.384       .  S
C4171      F4180   1.383       .  S
C4171      F4181   1.381       .  S
C4185      C4186   1.389       .  A
C4185      C4190   1.412       .  A
C4185      H4195   1.086       .  S
C4186      C4191   1.494       .  S
C4186      C4187   1.404       .  A
C4187      C4192   1.518       .  S
C4187      C4188   1.410       .  A
C4188      C4189   1.431       .  A
C4188      H4193   1.081       .  S
C4189      C4190   1.467       .  A
C4190      C4194   1.542       .  S
C4191      C4196   1.409       .  A
C4191      C4200   1.396       .  A
C4192      F4208   1.383       .  S
C4192      F4209   1.382       .  S
C4192      F4210   1.384       .  S
C4194      F4205   1.387       .  S
C4194      F4206   1.380       .  S
C4194      F4207   1.364       .  S
C4196      C4201   1.525       .  S
C4196      C4197   1.405       .  A
C4197      C4198   1.426       .  A
C4197      H4202   1.073       .  S
C4198      C4199   1.449       .  A
C4199      C4203   1.529       .  S
C4199      C4200   1.418       .  A
C4200      H4204   1.083       .  S
C4201      F4214   1.385       .  S
C4201      F4215   1.381       .  S
C4201      F4216   1.382       .  S
C4203      F4211   1.378       .  S
C4203      F4212   1.376       .  S
C4203      F4213   1.385       .  S
C4217      C4218   1.392       .  A
C4217      C4222   1.401       .  A
C4217      H4227   1.086       .  S
C4218      C4223   1.486       .  S
C4218      C4219   1.412       .  A
C4219      C4224   1.518       .  S
C4219      C4220   1.414       .  A
C4220      C4221   1.422       .  A
C4220      H4225   1.074       .  S
C4221      C4222   1.447       .  A
C4222      C4226   1.527       .  S
C4223      C4228   1.418       .  A
C4223      C4232   1.399       .  A
C4224      F4240   1.382       .  S
C4224      F4241   1.381       .  S
C4224      F4242   1.385       .  S
C4226      F4237   1.385       .  S
C4226      F4238   1.383       .  S
C4226      F4239   1.366       .  S
C4228      C4233   1.520       .  S
C4228      C4229   1.412       .  A
C4229      C4230   1.407       .  A
C4229      H4234   1.083       .  S
C4230      C4231   1.424       .  A
C4231      C4235   1.521       .  S
C4231      C4232   1.404       .  A
C4232      H4236   1.081       .  S
C4233      F4246   1.384       .  S
C4233      F4247   1.381       .  S
C4233      F4248   1.381       .  S
C4235      F4243   1.383       .  S
C4235      F4244   1.384       .  S
C4235      F4245   1.385       .  S
C4249      C4250   1.401       .  A
C4249      C4254   1.410       .  A
C4249      H4259   1.083       .  S
C4250      C4255   1.485       .  S
C4250      C4251   1.414       .  A
C4251      C4256   1.522       .  S
C4251      C4252   1.406       .  A
C4252      C4253   1.408       .  A
C4252      H4257   1.083       .  S
C4253      C4254   1.423       .  A
C4254      C4258   1.519       .  S
C4255      C4260   1.401       .  A
C4255      C4264   1.386       .  A
C4256      F4272   1.383       .  S
C4256      F4273   1.382       .  S
C4256      F4274   1.384       .  S
C4258      F4269   1.383       .  S
C4258      F4270   1.384       .  S
C4258      F4271   1.383       .  S
C4260      C4265   1.522       .  S
C4260      C4261   1.407       .  A
C4261      C4262   1.433       .  A
C4261      H4266   1.068       .  S
C4262      C4263   1.456       .  A
C4263      C4267   1.523       .  S
C4263      C4264   1.411       .  A
C4264      H4268   1.084       .  S
C4265      F4278   1.382       .  S
C4265      F4279   1.382       .  S
C4265      F4280   1.382       .  S
C4267      F4275   1.386       .  S
C4267      F4276   1.363       .  S
C4267      F4277   1.378       .  S
C4281      C4282   1.404       .  A
C4281      C4286   1.410       .  A
C4281      H4291   1.083       .  S
C4282      C4287   1.498       .  S
C4282      C4283   1.419       .  A
C4283      C4288   1.519       .  S
C4283      C4284   1.413       .  A
C4284      C4285   1.407       .  A
C4284      H4289   1.083       .  S
C4285      C4286   1.422       .  A
C4286      C4290   1.519       .  S
C4287      C4292   1.404       .  A
C4287      C4296   1.404       .  A
C4288      F4304   1.381       .  S
C4288      F4305   1.383       .  S
C4288      F4306   1.384       .  S
C4290      F4301   1.383       .  S
C4290      F4302   1.385       .  S
C4290      F4303   1.380       .  S
C4292      C4297   1.524       .  S
C4292      C4293   1.394       .  A
C4293      C4294   1.427       .  A
C4293      H4298   1.081       .  S
C4294      C4295   1.458       .  A
C4295      C4299   1.540       .  S
C4295      C4296   1.430       .  A
C4296      H4300   1.081       .  S
C4297      F4310   1.386       .  S
C4297      F4311   1.382       .  S
C4297      F4312   1.383       .  S
C4299      F4307   1.385       .  S
C4299      F4308   1.370       .  S
C4299      F4309   1.379       .  S
C4313      C4314   1.396       .  A
C4313      C4318   1.417       .  A
C4313      H4323   1.082       .  S
C4314      C4319   1.506       .  S
C4314      C4315   1.413       .  A
C4315      C4320   1.523       .  S
C4315      C4316   1.413       .  A
C4316      C4317   1.431       .  A
C4316      H4321   1.074       .  S
C4317      C4318   1.451       .  A
C4318      C4322   1.530       .  S
C4319      C4324   1.411       .  A
C4319      C4328   1.398       .  A
C4320      F4336   1.380       .  S
C4320      F4337   1.383       .  S
C4320      F4338   1.385       .  S
C4322      F4333   1.379       .  S
C4322      F4334   1.385       .  S
C4322      F4335   1.366       .  S
C4324      C4329   1.523       .  S
C4324      C4325   1.409       .  A
C4325      C4326   1.420       .  A
C4325      H4330   1.070       .  S
C4326      C4327   1.458       .  A
C4327      C4331   1.538       .  S
C4327      C4328   1.420       .  A
C4328      H4332   1.084       .  S
C4329      F4342   1.385       .  S
C4329      F4343   1.381       .  S
C4329      F4344   1.383       .  S
C4331      F4339   1.386       .  S
C4331      F4340   1.377       .  S
C4331      F4341   1.375       .  S
C4345      C4346   1.391       .  A
C4345      C4350   1.417       .  A
C4345      H4355   1.083       .  S
C4346      C4351   1.489       .  S
C4346      C4347   1.400       .  A
C4347      C4352   1.524       .  S
C4347      C4348   1.404       .  A
C4348      C4349   1.433       .  A
C4348      H4353   1.066       .  S
C4349      C4350   1.455       .  A
C4350      C4354   1.526       .  S
C4351      C4356   1.415       .  A
C4351      C4360   1.400       .  A
C4352      F4368   1.382       .  S
C4352      F4369   1.382       .  S
C4352      F4370   1.382       .  S
C4354      F4365   1.378       .  S
C4354      F4366   1.386       .  S
C4354      F4367   1.366       .  S
C4356      C4361   1.521       .  S
C4356      C4357   1.408       .  A
C4357      C4358   1.408       .  A
C4357      H4362   1.083       .  S
C4358      C4359   1.426       .  A
C4359      C4363   1.520       .  S
C4359      C4360   1.411       .  A
C4360      H4364   1.083       .  S
C4361      F4374   1.385       .  S
C4361      F4375   1.382       .  S
C4361      F4376   1.381       .  S
C4363      F4371   1.383       .  S
C4363      F4372   1.384       .  S
C4363      F4373   1.385       .  S
C4377      C4378   1.392       .  A
C4377      C4382   1.403       .  A
C4377      H4387   1.086       .  S
C4378      C4383   1.483       .  S
C4378      C4379   1.415       .  A
C4379      C4384   1.517       .  S
C4379      C4380   1.412       .  A
C4380      C4381   1.419       .  A
C4380      H4385   1.075       .  S
C4381      C4382   1.445       .  A
C4382      C4386   1.524       .  S
C4383      C4388   1.410       .  A
C4383      C4392   1.397       .  A
C4384      F4400   1.381       .  S
C4384      F4401   1.382       .  S
C4384      F4402   1.383       .  S
C4386      F4397   1.384       .  S
C4386      F4398   1.382       .  S
C4386      F4399   1.368       .  S
C4388      C4393   1.517       .  S
C4388      C4389   1.411       .  A
C4389      C4390   1.414       .  A
C4389      H4394   1.082       .  S
C4390      C4391   1.432       .  A
C4391      C4395   1.524       .  S
C4391      C4392   1.406       .  A
C4392      H4396   1.083       .  S
C4393      F4406   1.384       .  S
C4393      F4407   1.383       .  S
C4393      F4408   1.382       .  S
C4395      F4403   1.383       .  S
C4395      F4404   1.381       .  S
C4395      F4405   1.385       .  S
C4409      C4410   1.405       .  A
C4409      C4414   1.408       .  A
C4409      H4419   1.083       .  S
C4410      C4415   1.489       .  S
C4410      C4411   1.422       .  A
C4411      C4416   1.518       .  S
C4411      C4412   1.407       .  A
C4412      C4413   1.399       .  A
C4412      H4417   1.085       .  S
C4413      C4414   1.414       .  A
C4414      C4418   1.518       .  S
C4415      C4420   1.400       .  A
C4415      C4424   1.400       .  A
C4416      F4432   1.379       .  S
C4416      F4433   1.383       .  S
C4416      F4434   1.383       .  S
C4418      F4429   1.383       .  S
C4418      F4430   1.384       .  S
C4418      F4431   1.383       .  S
C4420      C4425   1.526       .  S
C4420      C4421   1.394       .  A
C4421      C4422   1.429       .  A
C4421      H4426   1.076       .  S
C4422      C4423   1.459       .  A
C4423      C4427   1.532       .  S
C4423      C4424   1.426       .  A
C4424      H4428   1.083       .  S
C4425      F4438   1.385       .  S
C4425      F4439   1.382       .  S
C4425      F4440   1.382       .  S
C4427      F4435   1.386       .  S
C4427      F4436   1.368       .  S
C4427      F4437   1.380       .  S
C4441      C4442   1.396       .  A
C4441      C4446   1.419       .  A
C4441      H4451   1.084       .  S
C4442      C4447   1.496       .  S
C4442      C4443   1.406       .  A
C4443      C4448   1.523       .  S
C4443      C4444   1.410       .  A
C4444      C4445   1.420       .  A
C4444      H4449   1.068       .  S
C4445      C4446   1.459       .  A
C4446      C4450   1.539       .  S
C4447      C4452   1.403       .  A
C4447      C4456   1.392       .  A
C4448      F4464   1.382       .  S
C4448      F4465   1.380       .  S
C4448      F4466   1.384       .  S
C4450      F4461   1.387       .  S
C4450      F4462   1.380       .  S
C4450      F4463   1.372       .  S
C4452      C4457   1.523       .  S
C4452      C4453   1.405       .  A
C4453      C4454   1.435       .  A
C4453      H4458   1.078       .  S
C4454      C4455   1.465       .  A
C4455      C4459   1.532       .  S
C4455      C4456   1.423       .  A
C4456      H4460   1.084       .  S
C4457      F4470   1.385       .  S
C4457      F4471   1.382       .  S
C4457      F4472   1.380       .  S
C4459      F4467   1.368       .  S
C4459      F4468   1.380       .  S
C4459      F4469   1.387       .  S
