geometry optimzed in LAMMPS
_audit_creation_date              2020-11-30 
_audit_creation_method            'lammps2cif' 
_symmetry_space_group_name_H-M    'P1' 
_symmetry_Int_Tables_number       1 
_symmetry_cell_setting            triclinic 
loop_ 
_symmetry_equiv_pos_as_xyz 
  x,y,z 
_cell_length_a                    54.307485502025905 
_cell_length_b                    54.52140313756149 
_cell_length_c                    30.387740201457156 
_cell_angle_alpha                 88.74085358943073 
_cell_angle_beta                  89.83284950135443 
_cell_angle_gamma                 124.3916961870469 
loop_ 
_atom_site_label 
_atom_site_type_symbol 
_atom_site_fract_x 
_atom_site_fract_y 
_atom_site_fract_z 
_atom_site_charge 
O1          O  0.69881120  0.24375137  0.20392776    -0.74840
O2          O  0.75140062  0.29836332  0.28983816    -0.74870
O3          O  0.75179438  0.29785302  0.20098237    -0.74930
O4          O  0.69902372  0.24453466  0.29290980    -0.74980
O5          O  0.72371772  0.22305872  0.29535548    -0.74910
O6          O  0.77574136  0.27568196  0.20222361    -0.74890
O7          O  0.77630818  0.27699792  0.29131707    -0.74860
O8          O  0.72284245  0.22166557  0.20566757    -0.74930
Ni9        Ni  0.72439216  0.27187257  0.24675756     1.25410
Ni10       Ni  0.75048092  0.24851756  0.24861584     1.25360
C11         C  0.70185824  0.22345687  0.19059308     0.87340
C12         C  0.77241868  0.29669434  0.30490920     0.87270
C13         C  0.77275792  0.29580080  0.18650361     0.87300
C14         C  0.70323030  0.22563181  0.31039499     0.87470
C15         C  0.43903836  0.93446899  0.99616881     0.02710
C16         C  0.43759363  0.92023136  0.45710869    -0.13440
C17         C  0.43781276  0.89462281  0.45878053     0.00210
C18         C  0.43744129  0.88206792  0.99962197    -0.11960
C19         C  0.43848075  0.89566643  0.03870717     0.02700
C20         C  0.44089473  0.92263385  0.03673638    -0.11380
H21         H  0.43676830  0.92921053  0.42541809     0.08300
H22         H  0.43689394  0.86187310  0.00095085     0.05830
H23         H  0.44330012  0.93386440  0.06699403     0.05680
C24         C  0.30695557  0.98073333  0.49342355     0.02710
C25         C  0.29011454  0.97202098  0.03358488    -0.13440
C26         C  0.25881677  0.95148571  0.03423090     0.00210
C27         C  0.24403900  0.94173385  0.49417279    -0.11960
C28         C  0.26007396  0.94757359  0.45509223     0.02700
C29         C  0.29116611  0.96538654  0.45549546    -0.11380
H30         H  0.30087623  0.97896511  0.06484468     0.08300
H31         H  0.21991442  0.92658032  0.49400065     0.05830
H32         H  0.30248664  0.96543001  0.42638450     0.05680
C33         C  0.45720743  0.17399816  0.00481983     0.02710
C34         C  0.46058098  0.18965224  0.46512354    -0.13440
C35         C  0.46099549  0.21555259  0.46531990     0.00210
C36         C  0.46062101  0.22737499  0.00545626    -0.11960
C37         C  0.45740742  0.21228889  0.04510464     0.02700
C38         C  0.45465966  0.18514137  0.04472752    -0.11380
H39         H  0.46182392  0.18121525  0.43383904     0.08300
H40         H  0.46150929  0.24774833  0.00574480     0.05830
H41         H  0.45041761  0.17281070  0.07543175     0.05680
C42         C  0.58599184  0.12305499  0.00015631     0.02710
C43         C  0.59975206  0.13446561  0.04087067    -0.13440
C44         C  0.63094843  0.15466884  0.04284716     0.00210
C45         C  0.64822126  0.16404040  0.00396453    -0.11960
C46         C  0.63471227  0.15359033  0.46330790     0.02700
C47         C  0.60396442  0.13234684  0.46172360    -0.11380
H48         H  0.58625871  0.12906095  0.07046059     0.08300
H49         H  0.67191213  0.18131395  0.50500134     0.05830
H50         H  0.59373564  0.12494092  0.42986727     0.05680
C51         C  0.43532095  0.03939160  0.98754723     0.00150
C52         C  0.45859538  0.06894859  0.98516149     0.00150
O53         O  0.20876096  0.53215536  0.20005477    -0.74840
O54         O  0.16141967  0.53540020  0.28914453    -0.74870
O55         O  0.16279121  0.53832834  0.19986942    -0.74930
O56         O  0.20830765  0.53063590  0.28936167    -0.74980
O57         O  0.23977922  0.57997356  0.28890754    -0.74910
O58         O  0.19469794  0.58760792  0.20081441    -0.74890
O59         O  0.19273007  0.58475888  0.29012691    -0.74860
O60         O  0.24070055  0.58142905  0.19958062    -0.74930
Ni61       Ni  0.18421246  0.53238804  0.24458368     1.25410
Ni62       Ni  0.21812520  0.58520394  0.24490844     1.25360
C63         C  0.23212517  0.55601035  0.18439262     0.87340
C64         C  0.16907871  0.56035114  0.30453548     0.87270
C65         C  0.17147967  0.56442641  0.18551927     0.87300
C66         C  0.23135316  0.55435048  0.30444938     0.87470
O67         O  0.19258893  0.86045326  0.20160856    -0.74840
O68         O  0.14117933  0.80506624  0.29214622    -0.74870
O69         O  0.13929766  0.80725998  0.20332359    -0.74930
O70         O  0.19410849  0.85833366  0.29106785    -0.74980
O71         O  0.17105747  0.88157226  0.29434308    -0.74910
O72         O  0.11605167  0.83009952  0.20732555    -0.74890
O73         O  0.11776877  0.82785795  0.29649601    -0.74860
O74         O  0.16947904  0.88361542  0.20499292    -0.74930
Ni75       Ni  0.16768099  0.83205081  0.24685672     1.25410
Ni76       Ni  0.14277331  0.85663764  0.25095910     1.25360
C77         C  0.18909283  0.88057452  0.18757599     0.87340
C78         C  0.12100130  0.80726368  0.30932638     0.87270
C79         C  0.11855866  0.81022508  0.19070005     0.87300
C80         C  0.19117835  0.87796910  0.30772521     0.87470
C81         C  0.07144970  0.56907580  0.49658725     0.02710
C82         C  0.09021521  0.57680858  0.03347911    -0.13440
C83         C  0.11446518  0.57433206  0.03317055     0.00210
C84         C  0.12324367  0.56838980  0.99396413    -0.11960
C85         C  0.10649572  0.56252116  0.45607435     0.02700
C86         C  0.07967011  0.56073570  0.45831169    -0.11380
H87         H  0.08642334  0.58446946  0.06348754     0.08300
H88         H  0.14285001  0.56777906  0.99310668     0.05830
H89         H  0.06539830  0.55213708  0.43026338     0.05680
C90         C  0.01798055  0.69157218  0.50463605     0.02710
C91         C  0.03424849  0.70711173  0.46569139    -0.13440
C92         C  0.05563138  0.73779822  0.46456677     0.00210
C93         C  0.06374390  0.75342446  0.50341625    -0.11960
C94         C  0.05060820  0.73847521  0.04344774     0.02700
C95         C  0.02702959  0.70814953  0.04383595    -0.11380
H96         H  0.03251453  0.69587819  0.43617099     0.08300
H97         H  0.08175474  0.77685073  0.50280795     0.05830
H98         H  0.01765527  0.69789045  0.07565106     0.05680
C99         C  0.87118072  0.41459276  0.48970424     0.02710
C100        C  0.86156358  0.39819032  0.45088674    -0.13440
C101        C  0.83910010  0.36758623  0.45286134     0.00210
C102        C  0.82857058  0.35277496  0.49385406    -0.11960
C103        C  0.83844281  0.36856388  0.03273208     0.02700
C104        C  0.85949681  0.39936259  0.03057649    -0.11380
H105        H  0.87012356  0.40936019  0.41910418     0.08300
H106        H  0.81111010  0.32917057  0.49536959     0.05830
H107        H  0.86589162  0.41153667  0.06083003     0.05680
C108        C  0.82727216  0.54286687  0.00399024     0.02710
C109        C  0.81339350  0.54318972  0.04296021    -0.13440
C110        C  0.78656819  0.54120905  0.04162877     0.00210
C111        C  0.77440267  0.54070382  0.00089535    -0.11960
C112        C  0.78807711  0.54086125  0.46168590     0.02700
C113        C  0.81378101  0.54065281  0.46331542    -0.11380
H114        H  0.82332835  0.54478430  0.07455831     0.08300
H115        H  0.75444442  0.54069273  0.99963538     0.05830
H116        H  0.82362841  0.53967798  0.43294477     0.05680
C117        C  0.96177168  0.56493020  0.51690365     0.00150
C118        C  0.93289791  0.54052310  0.51404456     0.00150
O119        O  0.47860470  0.29966515  0.29566617    -0.74840
O120        O  0.47099202  0.34433421  0.20344756    -0.74870
O121        O  0.47197950  0.34537455  0.29277418    -0.74930
O122        O  0.47787292  0.29885618  0.20646819    -0.74980
O123        O  0.42864497  0.26657247  0.20880108    -0.74910
O124        O  0.42259515  0.31289424  0.29571397    -0.74890
O125        O  0.42171940  0.31211658  0.20693500    -0.74860
O126        O  0.42918798  0.26737582  0.29754231    -0.74930
Ni127      Ni  0.47664380  0.32323796  0.24950220     1.25410
Ni128      Ni  0.42381507  0.28862111  0.25229873     1.25360
C129        C  0.45498877  0.27604744  0.31175576     0.87340
C130        C  0.44494451  0.33531938  0.18956580     0.87270
C131        C  0.44632296  0.33681823  0.30855805     0.87300
C132        C  0.45435601  0.27493687  0.19333332     0.87470
O133        O  0.68670980  0.57665699  0.20895880    -0.74840
O134        O  0.73383701  0.57113128  0.29605909    -0.74870
O135        O  0.73325352  0.57150924  0.20715775    -0.74930
O136        O  0.68672378  0.57580738  0.29806721    -0.74980
O137        O  0.65539448  0.52644789  0.29914686    -0.74910
O138        O  0.70202001  0.52214696  0.20912141    -0.74890
O139        O  0.70259516  0.52178240  0.29827934    -0.74860
O140        O  0.65525986  0.52733012  0.20998966    -0.74930
Ni141      Ni  0.71121738  0.57550868  0.25254362     1.25410
Ni142      Ni  0.67768187  0.52265321  0.25419032     1.25360
C143        C  0.66325218  0.55306060  0.19499199     0.87340
C144        C  0.72625556  0.54569123  0.31150945     0.87270
C145        C  0.72534958  0.54605537  0.19326141     0.87300
C146        C  0.66347834  0.55172276  0.31391539     0.87470
O147        O  0.42467627  0.76452888  0.20623750    -0.74840
O148        O  0.41825103  0.80912934  0.29664587    -0.74870
O149        O  0.41856754  0.81055360  0.20745121    -0.74930
O150        O  0.42380037  0.76273741  0.29604034    -0.74980
O151        O  0.47326085  0.79458242  0.29518123    -0.74910
O152        O  0.46803557  0.84220518  0.20623871    -0.74890
O153        O  0.46774135  0.84081359  0.29509186    -0.74860
O154        O  0.47415093  0.79647323  0.20602825    -0.74930
Ni155      Ni  0.41952539  0.78552314  0.25159486     1.25410
Ni156      Ni  0.47251237  0.81957209  0.25063182     1.25360
C157        C  0.45059468  0.77372054  0.19053604     0.87340
C158        C  0.44212202  0.83255765  0.31053454     0.87270
C159        C  0.44237955  0.83435309  0.19233473     0.87300
C160        C  0.44936833  0.77126324  0.31119874     0.87470
C161        C  0.32254788  0.53428161  0.99638180     0.02710
C162        C  0.31372880  0.53968163  0.45562344    -0.13440
C163        C  0.28904720  0.54165616  0.45351883     0.00210
C164        C  0.27483725  0.54095451  0.99246709    -0.11960
C165        C  0.28410816  0.53722397  0.03329129     0.02700
C166        C  0.30654561  0.53203785  0.03488664    -0.11380
H167        H  0.32638761  0.54337737  0.42575983     0.08300
H168        H  0.25676119  0.54399211  0.99107742     0.05830
H169        H  0.31246698  0.52787366  0.06678953     0.05680
C170        C  0.46246318  0.67593658  0.00605765     0.02710
C171        C  0.46669847  0.69295590  0.04344812    -0.13440
C172        C  0.45838562  0.71306681  0.04349356     0.00210
C173        C  0.45088460  0.72056902  0.00415603    -0.11960
C174        C  0.45082520  0.70770212  0.46503787     0.02700
C175        C  0.45465566  0.68430580  0.46639464    -0.11380
H176        H  0.47719083  0.69192663  0.07254724     0.08300
H177        H  0.44637018  0.73758160  0.00361092     0.05830
H178        H  0.45199757  0.67367057  0.43570388     0.05680
C179        C  0.43341526  0.43201481  0.99423837     0.02710
C180        C  0.43587493  0.42107183  0.03534518    -0.13440
C181        C  0.43755132  0.39634575  0.03766160     0.00210
C182        C  0.43772920  0.38311004  0.99891137    -0.11960
C183        C  0.43620378  0.39421331  0.45786049     0.02700
C184        C  0.43236452  0.41754627  0.45575252    -0.11380
H185        H  0.43679153  0.43186126  0.06541284     0.08300
H186        H  0.43972047  0.36440886  0.00067697     0.05830
H187        H  0.42992676  0.42524680  0.42396614     0.05680
C188        C  0.57218998  0.57193051  0.00545634     0.02710
C189        C  0.58133650  0.56716790  0.46477628    -0.13440
C190        C  0.60539742  0.56413242  0.46278904     0.00210
C191        C  0.61887941  0.56386808  0.00187207    -0.11960
C192        C  0.60902371  0.56700223  0.04247787     0.02700
C193        C  0.58708085  0.57279741  0.04386821    -0.11380
H194        H  0.56935487  0.56488411  0.43505460     0.08300
H195        H  0.63666750  0.56040510  0.00084683     0.05830
H196        H  0.58030623  0.57607822  0.07555087     0.05680
C197        C  0.44136356  0.56116388  0.00840914     0.00150
C198        C  0.45441346  0.54594638  0.01022763     0.00150
C199        C  0.48730246  0.56122515  0.01650786    -0.06540
C200        C  0.50760736  0.57990219  0.48279558    -0.17670
C201        C  0.53630494  0.58576526  0.47985700     0.10660
C202        C  0.54448090  0.57136724  0.00986128    -0.06470
C203        C  0.52473316  0.55433949  0.04496089    -0.17700
C204        C  0.49718591  0.55028115  0.04948287     0.10690
S205        S  0.56107327  0.61162379  0.43715620    -0.32670
S206        S  0.47490711  0.52956465  0.09731417    -0.32670
H207        H  0.46715657  0.54965896  0.10497837     0.28700
H208        H  0.58741223  0.62190435  0.46043470     0.28690
H209        H  0.50071725  0.58874614  0.45722256     0.19290
H210        H  0.53022487  0.54312306  0.06873036     0.19290
C211        C  0.43897813  0.51399536  0.99820312    -0.06540
C212        C  0.45248448  0.50901195  0.46319387    -0.17670
C213        C  0.45174167  0.48308319  0.46150599     0.10660
C214        C  0.43339745  0.45931979  0.99178158    -0.06470
C215        C  0.41590158  0.46246532  0.02230716    -0.17700
C216        C  0.41896438  0.48968748  0.02666719     0.10690
S217        S  0.47863587  0.48430242  0.42479952    -0.32670
S218        S  0.39905711  0.49319821  0.07084698    -0.32670
H219        H  0.38237321  0.46333468  0.08581446     0.28700
H220        H  0.48759960  0.47120345  0.45545093     0.28690
H221        H  0.46754886  0.52728517  0.44071243     0.19290
H222        H  0.40113961  0.44400826  0.04463568     0.19290
C223        C  0.46575293  0.64984793  0.00747188    -0.06540
C224        C  0.46641171  0.63746274  0.46724509    -0.17670
C225        C  0.46077873  0.60908797  0.46572817     0.10660
C226        C  0.45933739  0.59429079  0.00517737    -0.06470
C227        C  0.46710280  0.60993382  0.04399536    -0.17700
C228        C  0.46637906  0.63512948  0.04685495     0.10690
S229        S  0.45374713  0.59249745  0.41237874    -0.32670
S230        S  0.45974681  0.64153431  0.10214874    -0.32670
H231        H  0.43299712  0.63816819  0.09045097     0.28700
H232        H  0.45396393  0.56769728  0.42479614     0.28690
H233        H  0.46930792  0.64848446  0.43594113     0.19290
H234        H  0.46833759  0.59957435  0.07389621     0.19290
C235        C  0.40836867  0.54665204  0.00952431    -0.06540
C236        C  0.39123354  0.53239084  0.47235129    -0.17670
C237        C  0.36206950  0.52539356  0.46855684     0.10660
C238        C  0.35080050  0.53552735  0.00055561    -0.06470
C239        C  0.36788921  0.54872097  0.03812723    -0.17700
C240        C  0.39493128  0.55219701  0.04435420     0.10690
S241        S  0.34044611  0.50261504  0.42334089    -0.32670
S242        S  0.40960101  0.56224529  0.09902460    -0.32670
H243        H  0.42818405  0.55229925  0.09546245     0.28700
H244        H  0.31282010  0.48857823  0.44586798     0.28690
H245        H  0.40065856  0.52690359  0.44601884     0.19290
H246        H  0.36052400  0.55687801  0.06354358     0.19290
C247        C  0.45067774  0.72195582  0.42300900    -0.06540
C248        C  0.47305415  0.75235906  0.41697289    -0.17670
C249        C  0.47312952  0.76881440  0.38120167     0.10660
C250        C  0.45109650  0.75446426  0.34873051    -0.06470
C251        C  0.42933749  0.72365874  0.35369213    -0.17700
C252        C  0.42866079  0.70733241  0.39066112     0.10690
S253        S  0.50035107  0.80845452  0.38164457    -0.32670
S254        S  0.39853623  0.66849857  0.39533401    -0.32670
H255        H  0.39631716  0.66701673  0.44153575     0.28700
H256        H  0.47928824  0.81513275  0.37298316     0.28690
H257        H  0.49000458  0.76378322  0.44169147     0.19290
H258        H  0.41224217  0.71234643  0.32918279     0.19290
C259        C  0.45829784  0.72750442  0.08406235    -0.06540
C260        C  0.47792100  0.75844306  0.08609394    -0.17670
C261        C  0.47547584  0.77399245  0.11979252     0.10660
C262        C  0.45357095  0.75825519  0.15359452    -0.06470
C263        C  0.43415427  0.72717229  0.15187539    -0.17700
C264        C  0.43611247  0.71166977  0.11722548     0.10690
S265        S  0.49925212  0.81402149  0.11530108    -0.32670
S266        S  0.40898168  0.67206794  0.11390121    -0.32670
H267        H  0.39349335  0.66824758  0.15342315     0.28700
H268        H  0.47660529  0.81792433  0.12700294     0.28690
H269        H  0.49430402  0.77072776  0.05984524     0.19290
H270        H  0.41722520  0.71511427  0.17745190     0.19290
C271        C  0.62013322  0.56201792  0.08369138    -0.06540
C272        C  0.63416280  0.58479901  0.11406562    -0.17670
C273        C  0.64652570  0.58167572  0.15231365     0.10660
C274        C  0.64603475  0.55562406  0.15964311    -0.06470
C275        C  0.63051793  0.53222801  0.13030216    -0.17700
C276        C  0.61707850  0.53490197  0.09305482     0.10690
S277        S  0.66171763  0.61138485  0.19081267    -0.32670
S278        S  0.59604817  0.50279554  0.05910951    -0.32670
H279        H  0.57473446  0.50836571  0.04624817     0.28700
H280        H  0.65160613  0.59243214  0.22847472     0.28690
H281        H  0.63559252  0.60522288  0.10783561     0.19290
H282        H  0.62925949  0.51184730  0.13589822     0.19290
C283        C  0.64597443  0.55317606  0.35008166    -0.06540
C284        C  0.64389041  0.57771803  0.35137614    -0.17670
C285        C  0.62950492  0.58129973  0.38655680     0.10660
C286        C  0.61614557  0.55949591  0.42092827    -0.06470
C287        C  0.61673594  0.53416402  0.41828653    -0.17700
C288        C  0.63190617  0.53103971  0.38404813     0.10690
S289        S  0.63042193  0.61486808  0.38665869    -0.32670
S290        S  0.63470665  0.49966128  0.38822688    -0.32670
H291        H  0.66549493  0.51646137  0.37822482     0.28700
H292        H  0.63457378  0.61918846  0.43217896     0.28690
H293        H  0.65432222  0.59472317  0.32541687     0.19290
H294        H  0.60675709  0.51744168  0.44469227     0.19290
C295        C  0.44440595  0.35422814  0.34345590    -0.06540
C296        C  0.46792376  0.36871170  0.37323687    -0.17670
C297        C  0.46617460  0.38286574  0.40981829     0.10660
C298        C  0.44008341  0.38210512  0.41737330    -0.06470
C299        C  0.41723419  0.36905752  0.38651679    -0.17700
C300        C  0.41930830  0.35554411  0.34934611     0.10690
S301        S  0.49758030  0.40234511  0.44621046    -0.32670
S302        S  0.38971491  0.34133432  0.31011688    -0.32670
H303        H  0.40856415  0.34957775  0.27287472     0.28700
H304        H  0.51635018  0.39654288  0.92366505     0.28690
H305        H  0.48743291  0.36827850  0.36844767     0.19290
H306        H  0.39756109  0.36920776  0.39160935     0.19290
C307        C  0.43888428  0.38344664  0.08004394    -0.06540
C308        C  0.41429137  0.35501533  0.09214818    -0.17670
C309        C  0.41546799  0.33887014  0.12737652     0.10660
C310        C  0.44173433  0.35174957  0.15270051    -0.06470
C311        C  0.46591303  0.38098576  0.14164971    -0.17700
C312        C  0.46495115  0.39674544  0.10533356     0.10690
S313        S  0.38330644  0.30123107  0.13536640    -0.32670
S314        S  0.49802848  0.43314900  0.09221425    -0.32670
H315        H  0.49458809  0.43205554  0.04634192     0.28700
H316        H  0.40014942  0.28893539  0.13362580     0.28690
H317        H  0.39441412  0.34463347  0.07234711     0.19290
H318        H  0.48612502  0.39142051  0.16062933     0.19290
C319        C  0.77632600  0.54363251  0.41945782    -0.06540
C320        C  0.76157412  0.51937260  0.39153807    -0.17670
C321        C  0.74626642  0.51979563  0.35466606     0.10660
C322        C  0.74477510  0.54461645  0.34636901    -0.06470
C323        C  0.76092077  0.56936440  0.37330414    -0.17700
C324        C  0.77690884  0.56929733  0.40908488     0.10690
S325        S  0.72983594  0.48841606  0.31920868    -0.32670
S326        S  0.79705956  0.60247579  0.44102885    -0.32670
H327        H  0.81971055  0.59896363  0.95424252     0.28700
H328        H  0.73754530  0.50562621  0.27996366     0.28690
H329        H  0.76152869  0.49981584  0.39896549     0.19290
H330        H  0.76063095  0.58884941  0.36713246     0.19290
C331        C  0.77155342  0.54057299  0.08272636    -0.06540
C332        C  0.78729467  0.56403628  0.11182185    -0.17670
C333        C  0.77335059  0.56568319  0.14936266     0.10660
C334        C  0.74255416  0.54397920  0.15732966    -0.06470
C335        C  0.72723085  0.51987674  0.12905029    -0.17700
C336        C  0.74145617  0.51767618  0.09248587     0.10690
S337        S  0.79637885  0.59541836  0.18628011    -0.32670
S338        S  0.72005887  0.48491798  0.05993525    -0.32670
H339        H  0.74436948  0.48385726  0.04726988     0.28700
H340        H  0.78276614  0.57782145  0.22481055     0.28690
H341        H  0.81059548  0.58133832  0.10506747     0.19290
H342        H  0.70380926  0.50268986  0.13509075     0.19290
C343        C  0.85533833  0.54408514  0.50674347    -0.06540
C344        C  0.85714249  0.52649259  0.03936278    -0.17670
C345        C  0.88288722  0.52683556  0.04438927     0.10660
C346        C  0.90723113  0.54377673  0.51461970    -0.06470
C347        C  0.90496837  0.56047239  0.48094622    -0.17700
C348        C  0.88026387  0.56215257  0.47819076     0.10690
S349        S  0.88300222  0.50478132  0.08924695    -0.32670
S350        S  0.88293752  0.58889964  0.43895752    -0.32670
H351        H  0.86715396  0.59664981  0.46539152     0.28700
H352        H  0.91325836  0.52520221  0.09850812     0.28690
H353        H  0.83830686  0.51231471  0.06143646     0.19290
H354        H  0.92237483  0.57210969  0.45609143     0.19290
C355        C  0.89174526  0.44771351  0.48878176    -0.06540
C356        C  0.91376800  0.46101954  0.02090704    -0.17670
C357        C  0.92892365  0.49135178  0.02971431     0.10660
C358        C  0.92446596  0.50994358  0.50239159    -0.06470
C359        C  0.90552342  0.49706072  0.46620897    -0.17700
C360        C  0.88790608  0.46632062  0.46072612     0.10690
S361        S  0.95001470  0.50381086  0.07940034    -0.32670
S362        S  0.85823251  0.45253949  0.42172502    -0.32670
H363        H  0.83633021  0.43052033  0.45092397     0.28700
H364        H  0.94638704  0.47710133  0.09288745     0.28690
H365        H  0.91722859  0.44690859  0.04174885     0.19290
H366        H  0.90176980  0.51074436  0.44475706     0.19290
C367        C  0.99543286  0.65795875  0.50561711    -0.06540
C368        C  0.98234711  0.64208412  0.04591367    -0.17670
C369        C  0.96790283  0.61110029  0.04965934     0.10660
C370        C  0.96940294  0.59596291  0.51387012    -0.06470
C371        C  0.97854084  0.61077011  0.47271296    -0.17700
C372        C  0.98789769  0.64041778  0.46759944     0.10690
S373        S  0.94680070  0.59152776  0.09917384    -0.32670
S374        S  0.98247717  0.65210307  0.41430198    -0.32670
H375        H  0.97157872  0.62542848  0.39242431     0.28700
H376        H  0.94982211  0.61590575  0.11981527     0.28690
H377        H  0.98274924  0.65331970  0.07480441     0.19290
H378        H  0.97608521  0.59831793  0.44391256     0.19290
C379        C  0.98801860  0.56307059  0.51248083    -0.06540
C380        C  0.99830156  0.56283589  0.47020168    -0.17670
C381        C  0.02656049  0.56813012  0.46339011     0.10660
C382        C  0.04288453  0.56794567  0.50005051    -0.06470
C383        C  0.03124131  0.56671491  0.04233544    -0.17700
C384        C  0.00631142  0.56752479  0.04848254     0.10690
S385        S  0.04160704  0.58007985  0.40815828    -0.32670
S386        S  0.00065482  0.57598719  0.10314771    -0.32670
H387        H  0.96958400  0.55920075  0.10185200     0.28700
H388        H  0.07082824  0.60138975  0.42175816     0.28690
H389        H  0.98562636  0.56167598  0.44191710     0.19290
H390        H  0.04151056  0.56574972  0.07196218     0.19290
C391        C  0.06434724  0.75423049  0.08473544    -0.06540
C392        C  0.06564878  0.78010166  0.09319318    -0.17670
C393        C  0.08176534  0.79805119  0.12856732     0.10660
C394        C  0.09767434  0.79042410  0.15614783    -0.06470
C395        C  0.09523812  0.76377448  0.14848896    -0.17700
C396        C  0.07914534  0.74589026  0.11311853     0.10690
S397        S  0.08251197  0.83122508  0.13451163    -0.32670
S398        S  0.08014658  0.71383459  0.10438091    -0.32670
H399        H  0.08323291  0.71740407  0.05828969     0.28700
H400        H  0.06905655  0.82239614  0.17673169     0.28690
H401        H  0.05452346  0.78673625  0.07135000     0.19290
H402        H  0.10691399  0.75726169  0.16927772     0.19290
C403        C  0.10238714  0.78653218  0.34599831    -0.06540
C404        C  0.11594296  0.77804729  0.37632770    -0.17670
C405        C  0.10105643  0.76178944  0.41483920     0.10660
C406        C  0.07159286  0.75313067  0.42305234    -0.06470
C407        C  0.05722232  0.75981860  0.39157152    -0.17700
C408        C  0.07221388  0.77622002  0.35298571     0.10690
S409        S  0.12119653  0.75362546  0.45277733    -0.32670
S410        S  0.05135843  0.78223011  0.31335986    -0.32670
H411        H  0.06570495  0.78040575  0.27617072     0.28700
H412        H  0.09624801  0.72664646  0.96968522     0.28690
H413        H  0.13865168  0.78475349  0.37063348     0.19290
H414        H  0.03427691  0.75244482  0.39732800     0.19290
C415        C  0.27241249  0.54213869  0.07391617    -0.06540
C416        C  0.27494152  0.56916336  0.07712608    -0.17670
C417        C  0.26274601  0.57476057  0.11296471     0.10660
C418        C  0.24845626  0.55330400  0.14767404    -0.06470
C419        C  0.24723399  0.52685917  0.14535345    -0.17700
C420        C  0.25858471  0.52086561  0.10880154     0.10690
S421        S  0.26417026  0.60857540  0.11040631    -0.32670
S422        S  0.25315066  0.48505339  0.10780457    -0.32670
H423        H  0.24931452  0.48169361  0.06208518     0.28700
H424        H  0.23366278  0.59420493  0.12078598     0.28690
H425        H  0.28569951  0.58573053  0.05061177     0.19290
H426        H  0.23633498  0.51012821  0.17161663     0.19290
C427        C  0.27840152  0.54631355  0.41147841    -0.06540
C428        C  0.27741789  0.57139298  0.40730697    -0.17670
C429        C  0.26201665  0.57434588  0.37329556     0.10660
C430        C  0.24830661  0.55240415  0.34084253    -0.06470
C431        C  0.25067919  0.52805092  0.34367152    -0.17700
C432        C  0.26519943  0.52456469  0.37887159     0.10690
S433        S  0.25839927  0.60518919  0.37609419    -0.32670
S434        S  0.26479034  0.49126857  0.38129366    -0.32670
H435        H  0.26108626  0.48694391  0.42723877     0.28700
H436        H  0.22763850  0.58795014  0.36751952     0.28690
H437        H  0.28716130  0.58796235  0.43252928     0.19290
H438        H  0.24047013  0.51119746  0.31892534     0.19290
C439        C  0.15054436  0.56014909  0.34059885    -0.06540
C440        C  0.13858974  0.53694405  0.37252783    -0.17670
C441        C  0.12223160  0.53598658  0.40891059     0.10660
C442        C  0.11785474  0.55890603  0.41416470    -0.06470
C443        C  0.12855035  0.58139729  0.38136885    -0.17700
C444        C  0.14453460  0.58208761  0.34446668     0.10690
S445        S  0.10807216  0.50531055  0.44802417    -0.32670
S446        S  0.15614423  0.61111201  0.30331392    -0.32670
H447        H  0.15146110  0.59325222  0.26727646     0.28700
H448        H  0.08366828  0.50553545  0.96298350     0.28690
H449        H  0.14257262  0.51967130  0.36967573     0.19290
H450        H  0.12511958  0.59899311  0.38515793     0.19290
C451        C  0.15558541  0.56834946  0.14951602    -0.06540
C452        C  0.17258583  0.59186246  0.11863612    -0.17670
C453        C  0.15954012  0.59545462  0.08165203     0.10660
C454        C  0.12879362  0.57493570  0.07480096    -0.06470
C455        C  0.11146738  0.55236781  0.10670470    -0.17700
C456        C  0.12441365  0.54908855  0.14416172     0.10690
S457        S  0.18328513  0.62646468  0.04431278    -0.32670
S458        S  0.09990014  0.52042647  0.18416625    -0.32670
H459        H  0.11562025  0.53713744  0.22097356     0.28700
H460        H  0.16080260  0.62965608  0.02898373     0.28690
H461        H  0.19640950  0.60728762  0.12277471     0.19290
H462        H  0.08771979  0.53677610  0.10191229     0.19290
C463        C  0.49081008  0.07934860  0.98518377    -0.06540
C464        C  0.50132626  0.06900009  0.01809468    -0.17670
C465        C  0.53199847  0.08161542  0.02277646     0.10660
C466        C  0.55298867  0.10631328  0.99561746    -0.06470
C467        C  0.54236465  0.11660769  0.46316138    -0.17700
C468        C  0.51203142  0.10321860  0.45702156     0.10690
S469        S  0.54267882  0.06492075  0.06348763    -0.32670
S470        S  0.50221126  0.11835390  0.41270942    -0.32670
H471        H  0.48972124  0.09253760  0.38810995     0.28700
H472        H  0.56848713  0.07170287  0.04071527     0.28690
H473        H  0.48567176  0.05140907  0.04096636     0.19290
H474        H  0.55794860  0.13577187  0.44240947     0.19290
C475        C  0.45646782  0.25697382  0.15903497    -0.06540
C476        C  0.42987428  0.23099511  0.14515420    -0.17670
C477        C  0.42957562  0.21516464  0.10928056     0.10660
C478        C  0.45648419  0.22527359  0.08652578    -0.06470
C479        C  0.48321905  0.25012693  0.10138377    -0.17700
C480        C  0.48370690  0.26568847  0.13768867     0.10690
S481        S  0.39400009  0.18284079  0.09366411    -0.32670
S482        S  0.51994940  0.29638429  0.15411798    -0.32670
H483        H  0.51545475  0.28616837  0.19827035     0.28700
H484        H  0.40047064  0.18430581  0.04856483     0.28690
H485        H  0.40881720  0.22335227  0.16135798     0.19290
H486        H  0.50395984  0.25763560  0.08417888     0.19290
C487        C  0.45676564  0.25889366  0.34860671    -0.06540
C488        C  0.43292671  0.24471605  0.37925113    -0.17670
C489        C  0.43333442  0.22933730  0.41615275     0.10660
C490        C  0.45858432  0.22872559  0.42394388    -0.06470
C491        C  0.48206617  0.24188814  0.39274576    -0.17700
C492        C  0.48121799  0.25655869  0.35481503     0.10750
S493        S  0.40077251  0.21077254  0.45201688    -0.32670
S494        S  0.51132035  0.27075643  0.31509226    -0.32670
H495        H  0.49296639  0.26293834  0.27818054     0.28700
H496        H  0.40243818  0.18660983  0.96341335     0.28690
H497        H  0.41376911  0.24579862  0.37472448     0.19290
H498        H  0.50118039  0.24084641  0.39808934     0.19290
C499        C  0.45488663  0.14541568  0.00358134    -0.06540
C500        C  0.43819904  0.12565952  0.47002274    -0.17670
C501        C  0.43890018  0.10092734  0.46207378     0.10660
C502        C  0.45376246  0.09321730  0.99185310    -0.06470
C503        C  0.46854034  0.11184048  0.02752007    -0.17700
C504        C  0.47056624  0.13841882  0.03251894     0.10690
S505        S  0.42420763  0.08407279  0.40982988    -0.32670
S506        S  0.49597984  0.16438285  0.07265603    -0.32670
H507        H  0.50575608  0.14712882  0.08966514     0.28700
H508        H  0.43964867  0.07066148  0.40657391     0.28690
H509        H  0.42605825  0.13068848  0.44756563     0.19290
H510        H  0.48034363  0.10643474  0.05000510     0.19290
C511        C  0.21042083  0.89598803  0.34418274    -0.06540
C512        C  0.22527135  0.92702830  0.34177574    -0.17670
C513        C  0.24217982  0.94468557  0.37702058     0.10660
C514        C  0.24417543  0.93095596  0.41556461    -0.06470
C515        C  0.22994538  0.90008251  0.41743079    -0.17700
C516        C  0.21302575  0.88255235  0.38250025     0.10690
S517        S  0.26008804  0.98430404  0.37095090    -0.32670
S518        S  0.19331129  0.84297141  0.39028048    -0.32670
H519        H  0.16642989  0.83799753  0.37537259     0.28700
H520        H  0.25990176  0.98986012  0.41583268     0.28690
H521        H  0.22339345  0.93752366  0.31247307     0.19290
H522        H  0.23138721  0.88945295  0.44696251     0.19290
C523        C  0.24174949  0.93485009  0.07526471    -0.06540
C524        C  0.22348362  0.90363237  0.07355488    -0.17670
C525        C  0.20606404  0.88595824  0.10945647     0.10660
C526        C  0.20700357  0.89926374  0.14911876    -0.06470
C527        C  0.22507565  0.93040983  0.15150481    -0.17700
C528        C  0.24257675  0.94842512  0.11493051     0.10690
S529        S  0.18110085  0.84653212  0.10169908    -0.32670
S530        S  0.26450120  0.98838152  0.11870862    -0.32670
H531        H  0.25897724  0.98911220  0.16375886     0.28700
H532        H  0.19691094  0.83965467  0.13011485     0.28690
H533        H  0.22263115  0.89269585  0.04367219     0.19290
H534        H  0.22543228  0.94050088  0.18200065     0.19290
C535        C  0.34079957  0.00199745  0.49160908    -0.06540
C536        C  0.35763083  0.01273465  0.03054388    -0.17670
C537        C  0.38885314  0.02778497  0.02998005     0.10660
C538        C  0.40368134  0.03000492  0.99023085    -0.06470
C539        C  0.38722309  0.02011921  0.45172536    -0.17700
C540        C  0.35744962  0.01059629  0.45131127     0.10690
S541        S  0.40758873  0.04177614  0.08172787    -0.32670
S542        S  0.34516731  0.01676041  0.39956531    -0.32670
H543        H  0.32513744  0.02206333  0.41918295     0.28700
H544        H  0.43576940  0.04863023  0.06956295     0.28690
H545        H  0.34708153  0.00969381  0.06212156     0.19290
H546        H  0.39830243  0.02217308  0.42084485     0.19290
C547        C  0.44005421  0.85212340  0.15699790    -0.06540
C548        C  0.41519213  0.83755116  0.12951751    -0.17670
C549        C  0.41324034  0.85197589  0.09251312     0.10660
C550        C  0.43713294  0.88140560  0.08141463    -0.06470
C551        C  0.46109523  0.89667589  0.11016446    -0.17700
C552        C  0.46250144  0.88260900  0.14825223     0.10690
S553        S  0.37969099  0.83160982  0.06071903    -0.32670
S554        S  0.49307874  0.90503682  0.18458941    -0.32670
H555        H  0.47579187  0.89189124  0.22340583     0.28700
H556        H  0.38034075  0.85665625  0.04621047     0.28690
H557        H  0.39732445  0.81448609  0.13626339     0.19290
H558        H  0.47908434  0.91956399  0.10250102     0.19290
C559        C  0.44083426  0.85012567  0.34596778    -0.06540
C560        C  0.46506178  0.86470298  0.37457789    -0.17670
C561        C  0.46511076  0.88051559  0.41006902     0.10660
C562        C  0.44010587  0.88150914  0.41823754    -0.06470
C563        C  0.41624949  0.86795208  0.38898231    -0.17700
C564        C  0.41652485  0.85265382  0.35261163     0.10690
S565        S  0.49778751  0.89883797  0.44394106    -0.32670
S566        S  0.38580725  0.83785018  0.31535294    -0.32670
H567        H  0.40363820  0.84551154  0.27705637     0.28700
H568        H  0.49592444  0.92261999  0.95529153     0.28690
H569        H  0.48416403  0.86358422  0.36962093     0.19290
H570        H  0.39719891  0.86905331  0.39476532     0.19290
C571        C  0.43892930  0.01396903  0.98952976    -0.06540
C572        C  0.42293566  0.99208688  0.02296058    -0.17670
C573        C  0.42128990  0.96564003  0.02448552     0.10660
C574        C  0.43863741  0.96160258  0.99458186    -0.06470
C575        C  0.45554749  0.98381683  0.46190953    -0.17700
C576        C  0.45473117  0.00903042  0.45776765     0.10690
S577        S  0.39417471  0.93707964  0.06270298    -0.32670
S578        S  0.47193379  0.03207877  0.40906196    -0.32670
H579        H  0.44787257  0.03426680  0.40068931     0.28700
H580        H  0.38533829  0.91339100  0.03457377     0.28690
H581        H  0.40998782  0.99464028  0.04711309     0.19290
H582        H  0.46865478  0.98100863  0.43821818     0.19290
C583        C  0.79309227  0.31669407  0.15053480    -0.06540
C584        C  0.78991331  0.33952842  0.13635450    -0.17670
C585        C  0.80518329  0.35746480  0.09910783     0.10660
C586        C  0.82439123  0.35279752  0.07506088    -0.06470
C587        C  0.82896555  0.33126039  0.09022906    -0.17700
C588        C  0.81421458  0.31371029  0.12804755     0.10690
S589        S  0.79808776  0.38498499  0.08315634    -0.32670
S590        S  0.82353016  0.28807604  0.14498464    -0.32670
H591        H  0.83025688  0.29857276  0.18817302     0.28700
H592        H  0.79980271  0.38248228  0.03754311     0.28690
H593        H  0.77459433  0.34293182  0.15347915     0.19290
H594        H  0.84418002  0.32805645  0.07227616     0.19290
C595        C  0.79121235  0.31698301  0.34007803    -0.06540
C596        C  0.77718202  0.32354456  0.37197211    -0.17670
C597        C  0.79269848  0.34089734  0.40782303     0.10660
C598        C  0.82306976  0.35175448  0.41285289    -0.06470
C599        C  0.83757392  0.34618579  0.38032051    -0.17700
C600        C  0.82204731  0.32918357  0.34373831     0.10690
S601        S  0.77229795  0.34823805  0.44616050    -0.32670
S602        S  0.84295206  0.32469167  0.30237513    -0.32670
H603        H  0.82715235  0.32566338  0.26651517     0.28700
H604        H  0.79656310  0.37700182  0.95593215     0.28690
H605        H  0.75370497  0.31474816  0.36933023     0.19290
H606        H  0.86100312  0.35491990  0.38362525     0.19290
C607        C  0.68463588  0.20677236  0.34887729    -0.06540
C608        C  0.68241957  0.18016986  0.35850949    -0.17670
C609        C  0.66582467  0.16184211  0.39498022     0.10660
C610        C  0.65111524  0.17024350  0.42270781    -0.06470
C611        C  0.65284957  0.19639186  0.41296102    -0.17700
C612        C  0.66968503  0.21491921  0.37710396     0.10690
S613        S  0.66522630  0.12877412  0.40497344    -0.32670
S614        S  0.67266790  0.24949290  0.37173906    -0.32670
H615        H  0.70397253  0.26678141  0.36749056     0.28700
H616        H  0.63846248  0.11267273  0.42967594     0.28690
H617        H  0.69371860  0.17352902  0.33750318     0.19290
H618        H  0.64174741  0.20297344  0.43459081     0.19290
C619        C  0.68120387  0.20273913  0.15633998    -0.06540
C620        C  0.66153962  0.20863724  0.13649693    -0.17670
C621        C  0.64408499  0.19258579  0.10067392     0.10660
C622        C  0.64573700  0.16960197  0.08404931    -0.06470
C623        C  0.66423413  0.16269264  0.10462004    -0.17700
C624        C  0.68140973  0.17843128  0.14093525     0.10690
S625        S  0.62106948  0.20338041  0.07663987    -0.32670
S626        S  0.70260207  0.16586542  0.16588933    -0.32670
H627        H  0.69286175  0.16576465  0.20892434     0.28700
H628        H  0.62463376  0.19819747  0.03272754     0.28690
H629        H  0.66044933  0.22671696  0.14776816     0.19290
H630        H  0.66538549  0.14489592  0.09208676     0.19290
O631        O  0.69881143  0.24375147  0.70392725    -0.74840
O632        O  0.75140065  0.29836351  0.78983769    -0.74870
O633        O  0.75179464  0.29785312  0.70098190    -0.74930
O634        O  0.69902376  0.24453484  0.79290928    -0.74980
O635        O  0.72371777  0.22305892  0.79535533    -0.74910
O636        O  0.77574159  0.27568204  0.70222355    -0.74890
O637        O  0.77630822  0.27699814  0.79131699    -0.74860
O638        O  0.72284265  0.22166564  0.70566744    -0.74930
Ni639      Ni  0.72439230  0.27187271  0.74675704     1.25410
Ni640      Ni  0.75048106  0.24851771  0.74861575     1.25360
C641        C  0.70185846  0.22345692  0.69059279     0.87340
C642        C  0.77241866  0.29669454  0.80490896     0.87270
C643        C  0.77275822  0.29580089  0.68650338     0.87300
C644        C  0.70323032  0.22563202  0.81039466     0.87470
C645        C  0.43903774  0.93446847  0.49616882     0.02710
C646        C  0.43759433  0.92023192  0.95710868    -0.13440
C647        C  0.43781359  0.89462344  0.95878050     0.00210
C648        C  0.43744042  0.88206728  0.49962201    -0.11960
C649        C  0.43847999  0.89566584  0.53870720     0.02700
C650        C  0.44089408  0.92263331  0.53673638    -0.11380
H651        H  0.43676897  0.92921107  0.92541808     0.08300
H652        H  0.43689303  0.86187243  0.50095089     0.05830
H653        H  0.44329957  0.93386392  0.56699401     0.05680
C654        C  0.30695565  0.98073355  0.99342326     0.02710
C655        C  0.29011447  0.97202059  0.53358520    -0.13440
C656        C  0.25881670  0.95148524  0.53423122     0.00210
C657        C  0.24403908  0.94173424  0.99417248    -0.11960
C658        C  0.26007403  0.94757375  0.95509199     0.02700
C659        C  0.29116618  0.96538663  0.95549524    -0.11380
H660        H  0.30087618  0.97896462  0.56484500     0.08300
H661        H  0.21991449  0.92658077  0.99400035     0.05830
H662        H  0.30248672  0.96542994  0.92638439     0.05680
C663        C  0.45720700  0.17399771  0.50482029     0.02710
C664        C  0.46058143  0.18965271  0.96512308    -0.13440
C665        C  0.46099609  0.21555315  0.96531950     0.00210
C666        C  0.46062029  0.22737439  0.50545662    -0.11960
C667        C  0.45740677  0.21228835  0.54510503     0.02700
C668        C  0.45465916  0.18514090  0.54472797    -0.11380
H669        H  0.46182426  0.18121568  0.93383857     0.08300
H670        H  0.46150848  0.24774768  0.50574511     0.05830
H671        H  0.45041718  0.17281026  0.57543222     0.05680
C672        C  0.58599178  0.12305462  0.50015649     0.02710
C673        C  0.59975202  0.13446523  0.54087084    -0.13440
C674        C  0.63094840  0.15466843  0.54284731     0.00210
C675        C  0.64822121  0.16403993  0.50396467    -0.11960
C676        C  0.63471234  0.15359077  0.96330775     0.02700
C677        C  0.60396450  0.13234724  0.96172344    -0.11380
H678        H  0.58625868  0.12906061  0.57046077     0.08300
H679        H  0.67191217  0.18131444  0.00500122     0.05830
H680        H  0.59373573  0.12494130  0.92986710     0.05680
C681        C  0.43532085  0.03939138  0.48754748     0.00150
C682        C  0.45859531  0.06894836  0.48516174     0.00150
O683        O  0.20876048  0.53215615  0.70005562    -0.74840
O684        O  0.16141666  0.53539682  0.78914552    -0.74870
O685        O  0.16279086  0.53832915  0.69987052    -0.74930
O686        O  0.20830470  0.53063236  0.78936254    -0.74980
O687        O  0.23977606  0.57996997  0.78891368    -0.74910
O688        O  0.19469775  0.58760858  0.70082007    -0.74890
O689        O  0.19272688  0.58475539  0.79013237    -0.74860
O690        O  0.24070027  0.58142971  0.69958678    -0.74930
Ni691      Ni  0.18421076  0.53238671  0.74458451     1.25410
Ni692      Ni  0.21812349  0.58520249  0.74491455     1.25360
C693        C  0.23212515  0.55601179  0.68439594     0.87340
C694        C  0.16907504  0.56034711  0.80453831     0.87270
C695        C  0.17147995  0.56442782  0.68552248     0.87300
C696        C  0.23134978  0.55434619  0.80445269     0.87470
O697        O  0.19258914  0.86045270  0.70160900    -0.74840
O698        O  0.14117959  0.80506563  0.79214670    -0.74870
O699        O  0.13929801  0.80725927  0.70332405    -0.74930
O700        O  0.19410862  0.85833320  0.79106832    -0.74980
O701        O  0.17105739  0.88157160  0.79434327    -0.74910
O702        O  0.11605182  0.83009861  0.70732576    -0.74890
O703        O  0.11776882  0.82785716  0.79649621    -0.74860
O704        O  0.16947903  0.88361464  0.70499312    -0.74930
Ni705      Ni  0.16768123  0.83205023  0.74685719     1.25410
Ni706      Ni  0.14277333  0.85663685  0.75095930     1.25360
C707        C  0.18909292  0.88057386  0.68757630     0.87340
C708        C  0.12100144  0.80726297  0.80932670     0.87270
C709        C  0.11855892  0.81022421  0.69070039     0.87300
C710        C  0.19117835  0.87796860  0.80772551     0.87470
C711        C  0.07144469  0.56907121  0.99658785     0.02710
C712        C  0.09022005  0.57681371  0.53347881    -0.13440
C713        C  0.11447072  0.57433829  0.53317081     0.00210
C714        C  0.12325030  0.56839712  0.49396438    -0.11960
C715        C  0.10648880  0.56251407  0.95607455     0.02700
C716        C  0.07966393  0.56072998  0.95831231    -0.11380
H717        H  0.08642728  0.58447386  0.56348727     0.08300
H718        H  0.14285699  0.56778697  0.49310738     0.05830
H719        H  0.06539186  0.55213175  0.93026423     0.05680
C720        C  0.01797952  0.69157257  0.00463685     0.02710
C721        C  0.03424794  0.70711159  0.96569222    -0.13440
C722        C  0.05563119  0.73779800  0.96456716     0.00210
C723        C  0.06374373  0.75342458  0.00341633    -0.11960
C724        C  0.05060887  0.73847464  0.54344758     0.02700
C725        C  0.02703080  0.70814878  0.54383552    -0.11380
H726        H  0.03251393  0.69587761  0.93617225     0.08300
H727        H  0.08175487  0.77685074  0.00280777     0.05830
H728        H  0.01765710  0.69788927  0.57565066     0.05680
C729        C  0.87117942  0.41459308  0.98970455     0.02710
C730        C  0.86156256  0.39819073  0.95088694    -0.13440
C731        C  0.83909944  0.36758654  0.95286138     0.00210
C732        C  0.82857001  0.35277512  0.99385402    -0.11960
C733        C  0.83844367  0.36856379  0.53273203     0.02700
C734        C  0.85949802  0.39936244  0.53057627    -0.11380
H735        H  0.87012246  0.40936073  0.91910444     0.08300
H736        H  0.81110978  0.32917066  0.99536942     0.05830
H737        H  0.86589305  0.41153661  0.56082974     0.05680
C738        C  0.82727413  0.54286634  0.50399010     0.02710
C739        C  0.81339527  0.54318882  0.54296016    -0.13440
C740        C  0.78656984  0.54120799  0.54162874     0.00210
C741        C  0.77440442  0.54070294  0.50089533    -0.11960
C742        C  0.78807522  0.54086176  0.96168598     0.02700
C743        C  0.81377898  0.54065311  0.96331561    -0.11380
H744        H  0.82333003  0.54478327  0.57455828     0.08300
H745        H  0.75444611  0.54069175  0.49963542     0.05830
H746        H  0.82362626  0.53967800  0.93294503     0.05680
C747        C  0.96176935  0.56493046  0.01690442     0.00150
C748        C  0.93289558  0.54052340  0.01404533     0.00150
O749        O  0.47860493  0.29966560  0.79566556    -0.74840
O750        O  0.47099170  0.34433438  0.70344698    -0.74870
O751        O  0.47197977  0.34537504  0.79277361    -0.74930
O752        O  0.47787262  0.29885633  0.70646759    -0.74980
O753        O  0.42864468  0.26657260  0.70880115    -0.74910
O754        O  0.42259542  0.31289479  0.79571403    -0.74890
O755        O  0.42171910  0.31211673  0.70693507    -0.74860
O756        O  0.42918819  0.26737633  0.79754235    -0.74930
Ni757      Ni  0.47664377  0.32323828  0.74950158     1.25410
Ni758      Ni  0.42381505  0.28862145  0.75229881     1.25360
C759        C  0.45498906  0.27604796  0.81175548     0.87340
C760        C  0.44494410  0.33531949  0.68956558     0.87270
C761        C  0.44632334  0.33681880  0.80855783     0.87300
C762        C  0.45435564  0.27493693  0.69333310     0.87470
O763        O  0.68670968  0.57665653  0.70895566    -0.74840
O764        O  0.73383711  0.57113131  0.79605597    -0.74870
O765        O  0.73325342  0.57150869  0.70715469    -0.74930
O766        O  0.68672408  0.57580755  0.79806404    -0.74980
O767        O  0.65539473  0.52644806  0.79914454    -0.74910
O768        O  0.70201982  0.52214643  0.70911890    -0.74890
O769        O  0.70259522  0.52178241  0.79827683    -0.74860
O770        O  0.65525961  0.52732967  0.70998739    -0.74930
Ni771      Ni  0.71121742  0.57550847  0.75254040     1.25410
Ni772      Ni  0.67768184  0.52265300  0.75418788     1.25360
C773        C  0.66325181  0.55306007  0.69498957     0.87340
C774        C  0.72625554  0.54569133  0.81150683     0.87270
C775        C  0.72534954  0.54605472  0.69325887     0.87300
C776        C  0.66347880  0.55172306  0.81391285     0.87470
O777        O  0.42467638  0.76452895  0.70623802    -0.74840
O778        O  0.41825161  0.80912969  0.79664635    -0.74870
O779        O  0.41856754  0.81055357  0.70745171    -0.74930
O780        O  0.42380111  0.76273784  0.79604085    -0.74980
O781        O  0.47326158  0.79458300  0.79518108    -0.74910
O782        O  0.46803556  0.84220521  0.70623847    -0.74890
O783        O  0.46774191  0.84081407  0.79509161    -0.74860
O784        O  0.47415103  0.79647332  0.70602811    -0.74930
Ni785      Ni  0.41952575  0.78552334  0.75159540     1.25410
Ni786      Ni  0.47251272  0.81957239  0.75063160     1.25360
C787        C  0.45059469  0.77372055  0.69053623     0.87340
C788        C  0.44212265  0.83255812  0.81053462     0.87270
C789        C  0.44237944  0.83435302  0.69233486     0.87300
C790        C  0.44936920  0.77126383  0.81119890     0.87470
C791        C  0.32254876  0.53428671  0.49638241     0.02710
C792        C  0.31372653  0.53967490  0.95562280    -0.13440
C793        C  0.28904358  0.54164733  0.95351855     0.00210
C794        C  0.27484135  0.54096457  0.49246713    -0.11960
C795        C  0.28411066  0.53723184  0.53329134     0.02700
C796        C  0.30654652  0.53204348  0.53488687    -0.11380
H797        H  0.32638554  0.54337147  0.92575906     0.08300
H798        H  0.25676629  0.54400364  0.49107718     0.05830
H799        H  0.31246643  0.52787751  0.56678968     0.05680
C800        C  0.46246002  0.67593472  0.50605773     0.02710
C801        C  0.46669605  0.69295433  0.54344814    -0.13440
C802        C  0.45838390  0.71306578  0.54349365     0.00210
C803        C  0.45088300  0.72056819  0.50415617    -0.11960
C804        C  0.45082751  0.70770339  0.96503772     0.02700
C805        C  0.45465882  0.68430764  0.96639444    -0.11380
H806        H  0.47718832  0.69192458  0.57254714     0.08300
H807        H  0.44636918  0.73758120  0.50361107     0.05830
H808        H  0.45200132  0.67367289  0.93570345     0.05680
C809        C  0.43341324  0.43201363  0.49423754     0.02710
C810        C  0.43587302  0.42107093  0.53534454    -0.13440
C811        C  0.43754981  0.39634510  0.53766134     0.00210
C812        C  0.43772789  0.38310933  0.49891131    -0.11960
C813        C  0.43620522  0.39421429  0.95786072     0.02700
C814        C  0.43236627  0.41754747  0.95575314    -0.11380
H815        H  0.43678944  0.43186042  0.56541204     0.08300
H816        H  0.43971944  0.36440833  0.50067719     0.05830
H817        H  0.42992853  0.42524816  0.92396689     0.05680
C818        C  0.57218718  0.57192879  0.50545658     0.02710
C819        C  0.58133924  0.56716953  0.96477606    -0.13440
C820        C  0.60540011  0.56413394  0.96278875     0.00210
C821        C  0.61887674  0.56386661  0.50187232    -0.11960
C822        C  0.60902099  0.56700072  0.54247807     0.02700
C823        C  0.58707802  0.57279571  0.54386847    -0.11380
H824        H  0.56935757  0.56488570  0.93505441     0.08300
H825        H  0.63666490  0.56040373  0.50084710     0.05830
H826        H  0.58030332  0.57607641  0.57555115     0.05680
C827        C  0.44136116  0.56116244  0.50840901     0.00150
C828        C  0.45441082  0.54594474  0.51022712     0.00150
C829        C  0.48729972  0.56122336  0.51650760    -0.06540
C830        C  0.50760992  0.57990372  0.98279547    -0.17670
C831        C  0.53630752  0.58576680  0.97985669     0.10660
C832        C  0.54447812  0.57136547  0.50986145    -0.06470
C833        C  0.52473020  0.55433745  0.54496077    -0.17700
C834        C  0.49718292  0.55027907  0.54948250     0.10690
S835        S  0.56107562  0.61162506  0.93715548    -0.32670
S836        S  0.47490367  0.52956222  0.59731326    -0.32670
H837        H  0.46715722  0.54965932  0.60498135     0.28700
H838        H  0.58741470  0.62190579  0.96043374     0.28690
H839        H  0.50071963  0.58874745  0.95722236     0.19290
H840        H  0.53022180  0.54312089  0.56873013     0.19290
C841        C  0.43897540  0.51399377  0.49820197    -0.06540
C842        C  0.45248686  0.50901331  0.96319482    -0.17670
C843        C  0.45174391  0.48308447  0.96150697     0.10660
C844        C  0.43339506  0.45931837  0.49178032    -0.06470
C845        C  0.41589870  0.46246357  0.52230531    -0.17700
C846        C  0.41896123  0.48968558  0.52666534     0.10690
S847        S  0.47863778  0.48430346  0.92480003    -0.32670
S848        S  0.39905314  0.49319556  0.57084458    -0.32670
H849        H  0.38236527  0.46333075  0.58580619     0.28700
H850        H  0.48760155  0.47120439  0.95545117     0.28690
H851        H  0.46755105  0.52728638  0.94071305     0.19290
H852        H  0.40113667  0.44400639  0.54463365     0.19290
C853        C  0.46574944  0.64984595  0.50747201    -0.06540
C854        C  0.46641399  0.63746407  0.96724487    -0.17670
C855        C  0.46078060  0.60908915  0.96572801     0.10660
C856        C  0.45933503  0.59428938  0.50517764    -0.06470
C857        C  0.46709917  0.60993198  0.54399597    -0.17700
C858        C  0.46637436  0.63512702  0.54685525     0.10690
S859        S  0.45374801  0.59249814  0.91237885    -0.32670
S860        S  0.45973833  0.64152999  0.60214802    -0.32670
H861        H  0.43298978  0.63816488  0.59044586     0.28700
H862        H  0.45396603  0.56769862  0.92479603     0.28690
H863        H  0.46930971  0.64848540  0.93594076     0.19290
H864        H  0.46833356  0.59957248  0.57389703     0.19290
C865        C  0.40836642  0.54665083  0.50952473    -0.06540
C866        C  0.39123568  0.53239036  0.97235160    -0.17670
C867        C  0.36207103  0.52539152  0.96855692     0.10660
C868        C  0.35079982  0.53552963  0.50055653    -0.06470
C869        C  0.36788812  0.54872098  0.53812927    -0.17700
C870        C  0.39492935  0.55219520  0.54435583     0.10690
S871        S  0.34044804  0.50261154  0.92334185    -0.32670
S872        S  0.40959861  0.56224072  0.59902694    -0.32670
H873        H  0.42818258  0.55229595  0.59546180     0.28700
H874        H  0.31282199  0.48857389  0.94586906     0.28690
H875        H  0.40066104  0.52690291  0.94601995     0.19290
H876        H  0.36052346  0.55687786  0.56354665     0.19290
C877        C  0.45067975  0.72195695  0.92300890    -0.06540
C878        C  0.47305566  0.75236035  0.91697298    -0.17670
C879        C  0.47313063  0.76881551  0.88120185     0.10660
C880        C  0.45109771  0.75446506  0.84873062    -0.06470
C881        C  0.42933920  0.72365942  0.85369207    -0.17700
C882        C  0.42866291  0.70733324  0.89066095     0.10690
S883        S  0.50035147  0.80845576  0.88164491    -0.32670
S884        S  0.39853901  0.66849915  0.89533358    -0.32670
H885        H  0.39631989  0.66701710  0.94153531     0.28700
H886        H  0.47928818  0.81513330  0.87298311     0.28690
H887        H  0.49000598  0.76378474  0.94169164     0.19290
H888        H  0.41224399  0.71234689  0.82918266     0.19290
C889        C  0.45829657  0.72750359  0.58406248    -0.06540
C890        C  0.47792041  0.75844215  0.58609425    -0.17670
C891        C  0.47547574  0.77399185  0.61979287     0.10660
C892        C  0.45357067  0.75825495  0.65359476    -0.06470
C893        C  0.43415332  0.72717212  0.65187543    -0.17700
C894        C  0.43611099  0.71166933  0.61722545     0.10690
S895        S  0.49925286  0.81402086  0.61530152    -0.32670
S896        S  0.40897920  0.67206772  0.61390081    -0.32670
H897        H  0.39349099  0.66824769  0.65342273     0.28700
H898        H  0.47660646  0.81792442  0.62700287     0.28690
H899        H  0.49430357  0.77072658  0.55984564     0.19290
H900        H  0.41722408  0.71511436  0.67745180     0.19290
C901        C  0.62013069  0.56201655  0.58369137    -0.06540
C902        C  0.63416113  0.58479803  0.61406485    -0.17670
C903        C  0.64652483  0.58167506  0.65231217     0.10660
C904        C  0.64603378  0.55562334  0.65964153    -0.06470
C905        C  0.63051599  0.53222688  0.63030148    -0.17700
C906        C  0.61707579  0.53490054  0.59305491     0.10690
S907        S  0.66171793  0.61138473  0.69081041    -0.32670
S908        S  0.59604444  0.50279376  0.55911052    -0.32670
H909        H  0.57473095  0.50836433  0.54624963     0.28700
H910        H  0.65160691  0.59243245  0.72847291     0.28690
H911        H  0.63559100  0.60522195  0.60783472     0.19290
H912        H  0.62925741  0.51184609  0.63589758     0.19290
C913        C  0.64597547  0.55317667  0.85007979    -0.06540
C914        C  0.64389153  0.57771868  0.85137449    -0.17670
C915        C  0.62950676  0.58130075  0.88655582     0.10660
C916        C  0.61614806  0.55949729  0.92092785    -0.06470
C917        C  0.61673847  0.53416541  0.91828606    -0.17700
C918        C  0.63190797  0.53104072  0.88404692     0.10690
S919        S  0.63042386  0.61486915  0.88665775    -0.32670
S920        S  0.63470855  0.49966235  0.88822543    -0.32670
H921        H  0.66549667  0.51646240  0.87822217     0.28700
H922        H  0.63457641  0.61918986  0.93217788     0.28690
H923        H  0.65432284  0.59472356  0.82541482     0.19290
H924        H  0.60676011  0.51744332  0.94469216     0.19290
C925        C  0.44440661  0.35422884  0.84345577    -0.06540
C926        C  0.46792450  0.36871219  0.87323666    -0.17670
C927        C  0.46617561  0.38286634  0.90981816     0.10660
C928        C  0.44008463  0.38210609  0.91737332    -0.06470
C929        C  0.41723536  0.36905871  0.88651687    -0.17700
C930        C  0.41930919  0.35554516  0.84934613     0.10690
S931        S  0.49758137  0.40234535  0.94621028    -0.32670
S932        S  0.38971574  0.34133561  0.81011703    -0.32670
H933        H  0.40856485  0.34957871  0.77287478     0.28700
H934        H  0.51634945  0.39654311  0.42366519     0.28690
H935        H  0.48743348  0.36827873  0.86844734     0.19290
H936        H  0.39756241  0.36920921  0.89160954     0.19290
C937        C  0.43888302  0.38344632  0.58004385    -0.06540
C938        C  0.41429013  0.35501514  0.59214868    -0.17670
C939        C  0.41546702  0.33887010  0.62737700     0.10660
C940        C  0.44173364  0.35174955  0.65270036    -0.06470
C941        C  0.46591231  0.38098565  0.64164902    -0.17700
C942        C  0.46495015  0.39674518  0.60533290     0.10690
S943        S  0.38330539  0.30123116  0.63536765    -0.32670
S944        S  0.49802743  0.43314865  0.59221295    -0.32670
H945        H  0.49458648  0.43205523  0.54634074     0.28700
H946        H  0.40014816  0.28893527  0.63362639     0.28690
H947        H  0.39441269  0.34463323  0.57234804     0.19290
H948        H  0.48612450  0.39142043  0.66062818     0.19290
C949        C  0.77632424  0.54363285  0.91945770    -0.06540
C950        C  0.76157332  0.51937313  0.89153749    -0.17670
C951        C  0.74626627  0.51979614  0.85466463     0.10660
C952        C  0.74477469  0.54461674  0.84636714    -0.06470
C953        C  0.76091939  0.56936451  0.87330279    -0.17700
C954        C  0.77690682  0.56929748  0.90908443     0.10690
S955        S  0.72983696  0.48841687  0.81920676    -0.32670
S956        S  0.79705653  0.60247580  0.94102884    -0.32670
H957        H  0.81971338  0.59896312  0.45424170     0.28700
H958        H  0.73754641  0.50562719  0.77996190     0.28690
H959        H  0.76152819  0.49981656  0.89896512     0.19290
H960        H  0.76062929  0.58884934  0.86713078     0.19290
C961        C  0.77155483  0.54057173  0.58272622    -0.06540
C962        C  0.78729567  0.56403518  0.61182155    -0.17670
C963        C  0.77335109  0.56568229  0.64936159     0.10660
C964        C  0.74255455  0.54397833  0.65732795    -0.06470
C965        C  0.72723168  0.51987562  0.62904892    -0.17700
C966        C  0.74145750  0.51767489  0.59248530     0.10690
S967        S  0.79637887  0.59541771  0.68627891    -0.32670
S968        S  0.72006071  0.48491649  0.55993494    -0.32670
H969        H  0.74437162  0.48385611  0.54727013     0.28700
H970        H  0.78276582  0.57782098  0.72480940     0.28690
H971        H  0.81059651  0.58133727  0.60506754     0.19290
H972        H  0.70381006  0.50268872  0.63508898     0.19290
C973        C  0.85533624  0.54408556  0.00674369    -0.06540
C974        C  0.85714466  0.52649209  0.53936236    -0.17670
C975        C  0.88288944  0.52683507  0.54438864     0.10660
C976        C  0.90722890  0.54377709  0.01462029    -0.06470
C977        C  0.90496620  0.56047265  0.98094657    -0.17700
C978        C  0.88026175  0.56215286  0.97819092     0.10690
S979        S  0.88300447  0.50478068  0.58924606    -0.32670
S980        S  0.88293540  0.58889978  0.93895733    -0.32670
H981        H  0.86715184  0.59665008  0.96539105     0.28700
H982        H  0.91326064  0.52520146  0.59850714     0.28690
H983        H  0.83830905  0.51231412  0.56143601     0.19290
H984        H  0.92237264  0.57210980  0.95609174     0.19290
C985        C  0.89174359  0.44771386  0.98878232    -0.06540
C986        C  0.91376983  0.46101908  0.52090627    -0.17670
C987        C  0.92892590  0.49135139  0.52971328     0.10660
C988        C  0.92446362  0.50994385  0.00239253    -0.06470
C989        C  0.90552116  0.49706092  0.96620983    -0.17700
C990        C  0.88790415  0.46632083  0.96072679     0.10690
S991        S  0.95001741  0.50381048  0.57939889    -0.32670
S992        S  0.85823065  0.45253948  0.92172551    -0.32670
H993        H  0.83632843  0.43052005  0.95092426     0.28700
H994        H  0.94639066  0.47710120  0.59288489     0.28690
H995        H  0.91723020  0.44690800  0.54174816     0.19290
H996        H  0.90176742  0.51074445  0.94475791     0.19290
C997        C  0.99543145  0.65795921  0.00561823    -0.06540
C998        C  0.98234825  0.64208357  0.54591240    -0.17670
C999        C  0.96790455  0.61109983  0.54965829     0.10660
C1000       C  0.96940072  0.59596322  0.01387095    -0.06470
C1001       C  0.97853849  0.61077043  0.97271378    -0.17700
C1002       C  0.98789565  0.64041820  0.96760051     0.10690
S1003       S  0.94680257  0.59152720  0.59917285    -0.32670
S1004       S  0.98247524  0.65210394  0.91430335    -0.32670
H1005       H  0.97157490  0.62542883  0.89242611     0.28700
H1006       H  0.94982380  0.61590505  0.61981444     0.28690
H1007       H  0.98274965  0.65331906  0.57480280     0.19290
H1008       H  0.97608264  0.59831824  0.94391326     0.19290
C1009       C  0.98801608  0.56307062  0.01248150    -0.06540
C1010       C  0.99829860  0.56283526  0.97020236    -0.17670
C1011       C  0.02655694  0.56812817  0.96339076     0.10660
C1012       C  0.04288061  0.56794306  0.00005118    -0.06470
C1013       C  0.03124454  0.56671627  0.54233478    -0.17700
C1014       C  0.00631395  0.56752496  0.54848197     0.10690
S1015       S  0.04160349  0.58007721  0.90815880    -0.32670
S1016       S  0.00065666  0.57598646  0.60314738    -0.32670
H1017       H  0.96958586  0.55920010  0.60185096     0.28700
H1018       H  0.07082508  0.60138605  0.92175843     0.28690
H1019       H  0.98562353  0.56167570  0.94191782     0.19290
H1020       H  0.04151388  0.56575115  0.57196147     0.19290
C1021       C  0.06434792  0.75422974  0.58473537    -0.06540
C1022       C  0.06564834  0.78010017  0.59319430    -0.17670
C1023       C  0.08176468  0.79804957  0.62856866     0.10660
C1024       C  0.09767469  0.79042316  0.65614811    -0.06470
C1025       C  0.09523959  0.76377420  0.64848803    -0.17700
C1026       C  0.07914697  0.74589010  0.61311743     0.10690
S1027       S  0.08250949  0.83122234  0.63451475    -0.32670
S1028       S  0.08014957  0.71383536  0.60437828    -0.32670
H1029       H  0.08323522  0.71740516  0.55828706     0.28700
H1030       H  0.06905486  0.82239263  0.67673527     0.28690
H1031       H  0.05452221  0.78673426  0.57135195     0.19290
H1032       H  0.10691620  0.75726188  0.66927596     0.19290
C1033       C  0.10238720  0.78653143  0.84599854    -0.06540
C1034       C  0.11594297  0.77804667  0.87632824    -0.17670
C1035       C  0.10105634  0.76178889  0.91483975     0.10660
C1036       C  0.07159272  0.75313007  0.92305258    -0.06470
C1037       C  0.05722222  0.75981782  0.89157140    -0.17700
C1038       C  0.07221387  0.77621915  0.85298560     0.10690
S1039       S  0.12119636  0.75362507  0.95277831    -0.32670
S1040       S  0.05135849  0.78222906  0.81335936    -0.32670
H1041       H  0.06570524  0.78040477  0.77617045     0.28700
H1042       H  0.09624824  0.72664662  0.46968375     0.28690
H1043       H  0.13865175  0.78475298  0.87063430     0.19290
H1044       H  0.03427679  0.75244401  0.89732765     0.19290
C1045       C  0.27241404  0.54214484  0.57391666    -0.06540
C1046       C  0.27494461  0.56917004  0.57713061    -0.17670
C1047       C  0.26274877  0.57476584  0.61297045     0.10660
C1048       C  0.24845697  0.55330707  0.64767673    -0.06470
C1049       C  0.24723312  0.52686159  0.64535201    -0.17700
C1050       C  0.25858415  0.52086953  0.60879892     0.10690
S1051       S  0.26417550  0.60858205  0.61041748    -0.32670
S1052       S  0.25314765  0.48505634  0.60779623    -0.32670
H1053       H  0.24931258  0.48169978  0.56207628     0.28700
H1054       H  0.23366773  0.59421232  0.62079415     0.28690
H1055       H  0.28570419  0.58573882  0.55061862     0.19290
H1056       H  0.23633255  0.51012894  0.67161274     0.19290
C1057       C  0.27839803  0.54630592  0.91147881    -0.06540
C1058       C  0.27741303  0.57138469  0.90731084    -0.17670
C1059       C  0.26201142  0.57433830  0.87330086     0.10660
C1060       C  0.24830264  0.55239830  0.84084531    -0.06470
C1061       C  0.25067662  0.52804583  0.84367065    -0.17700
C1062       C  0.26519716  0.52455872  0.87886952     0.10690
S1063       S  0.25839188  0.60518007  0.87610448    -0.32670
S1064       S  0.26479039  0.49126383  0.88128653    -0.32670
H1065       H  0.26108709  0.48693717  0.92723146     0.28700
H1066       H  0.22763144  0.58794047  0.86752745     0.28690
H1067       H  0.28715554  0.58795283  0.93253495     0.19290
H1068       H  0.24046861  0.51119375  0.81892241     0.19290
C1069       C  0.15053919  0.56014374  0.84060042    -0.06540
C1070       C  0.13858348  0.53693783  0.87252806    -0.17670
C1071       C  0.12222433  0.53597954  0.90891005     0.10660
C1072       C  0.11784751  0.55889899  0.91416462    -0.06470
C1073       C  0.12854387  0.58139088  0.88136969    -0.17700
C1074       C  0.14452913  0.58208205  0.84446830     0.10690
S1075       S  0.10806377  0.50530268  0.94802234    -0.32670
S1076       S  0.15613983  0.61110733  0.80331670    -0.32670
H1077       H  0.15145810  0.59324849  0.76727860     0.28700
H1078       H  0.08367650  0.50554296  0.46298553     0.28690
H1079       H  0.14256646  0.51966516  0.86967568     0.19290
H1080       H  0.12511314  0.59898671  0.88515912     0.19290
C1081       C  0.15558708  0.56835241  0.64951870    -0.06540
C1082       C  0.17258874  0.59186585  0.61863995    -0.17670
C1083       C  0.15954439  0.59545908  0.58165500     0.10660
C1084       C  0.12879800  0.57494086  0.57480201    -0.06470
C1085       C  0.11147054  0.55237261  0.60670478    -0.17700
C1086       C  0.12441546  0.54909226  0.64416255     0.10690
S1087       S  0.18329095  0.62646961  0.54431732    -0.32670
S1088       S  0.09990047  0.52042978  0.68416562    -0.32670
H1089       H  0.11562023  0.53713957  0.72097395     0.28700
H1090       H  0.16080928  0.62966191  0.52898683     0.28690
H1091       H  0.19641231  0.60729049  0.62278007     0.19290
H1092       H  0.08772302  0.53678143  0.60191100     0.19290
C1093       C  0.49081001  0.07934834  0.48518401    -0.06540
C1094       C  0.50132617  0.06899980  0.51809489    -0.17670
C1095       C  0.53199838  0.08161509  0.52277666     0.10660
C1096       C  0.55298860  0.10631295  0.49561766    -0.06470
C1097       C  0.54236471  0.11660799  0.96316116    -0.17700
C1098       C  0.51203148  0.10321887  0.95702131     0.10690
S1099       S  0.54267871  0.06492040  0.56348782    -0.32670
S1100       S  0.50221129  0.11835414  0.91270915    -0.32670
H1101       H  0.48972117  0.09253779  0.88810978     0.28700
H1102       H  0.56848700  0.07170249  0.54071544     0.28690
H1103       H  0.48567166  0.05140877  0.54096656     0.19290
H1104       H  0.55794865  0.13577218  0.94240924     0.19290
C1105       C  0.45646731  0.25697370  0.65903492    -0.06540
C1106       C  0.42987370  0.23099508  0.64515410    -0.17670
C1107       C  0.42957497  0.21516444  0.60928065     0.10660
C1108       C  0.45648355  0.22527311  0.58652612    -0.06470
C1109       C  0.48321847  0.25012634  0.60138417    -0.17700
C1110       C  0.48370638  0.26568806  0.63768888     0.10690
S1111       S  0.39399935  0.18284071  0.59366416    -0.32670
S1112       S  0.51994896  0.29638369  0.65411828    -0.32670
H1113       H  0.51545405  0.28616792  0.69827076     0.28700
H1114       H  0.40047007  0.18430525  0.54856505     0.28690
H1115       H  0.40881662  0.22335247  0.66135769     0.19290
H1116       H  0.50395926  0.25763480  0.58417946     0.19290
C1117       C  0.45676607  0.25889427  0.84860646    -0.06540
C1118       C  0.43292724  0.24471675  0.87925106    -0.17670
C1119       C  0.43333500  0.22933798  0.91615262     0.10660
C1120       C  0.45858487  0.22872618  0.92394354    -0.06470
C1121       C  0.48206663  0.24188867  0.89274527    -0.17700
C1122       C  0.48121839  0.25655923  0.85481459     0.10750
S1123       S  0.40077319  0.21077330  0.95201694    -0.32670
S1124       S  0.51132061  0.27075686  0.81509160    -0.32670
H1125       H  0.49296649  0.26293866  0.77818005     0.28700
H1126       H  0.40243759  0.18660914  0.46341346     0.28690
H1127       H  0.41376965  0.24579936  0.87472458     0.19290
H1128       H  0.50118083  0.24084688  0.89808869     0.19290
C1129       C  0.45488631  0.14541529  0.50358178    -0.06540
C1130       C  0.43819928  0.12565989  0.97002237    -0.17670
C1131       C  0.43890028  0.10092761  0.96207352     0.10660
C1132       C  0.45376240  0.09321707  0.49185334    -0.06470
C1133       C  0.46854024  0.11184023  0.52752034    -0.17700
C1134       C  0.47056600  0.13841850  0.53251932     0.10690
S1135       S  0.42420759  0.08407296  0.90982972    -0.32670
S1136       S  0.49597950  0.16438253  0.57265648    -0.32670
H1137       H  0.50575592  0.14712860  0.58966544     0.28700
H1138       H  0.43964863  0.07066166  0.90657370     0.28690
H1139       H  0.42605854  0.13068890  0.94756523     0.19290
H1140       H  0.48034357  0.10643453  0.55000534     0.19290
C1141       C  0.21042079  0.89598767  0.84418295    -0.06540
C1142       C  0.22527160  0.92702796  0.84177541    -0.17670
C1143       C  0.24218011  0.94468539  0.87702009     0.10660
C1144       C  0.24417546  0.93095593  0.91556451    -0.06470
C1145       C  0.22994510  0.90008243  0.91743123    -0.17700
C1146       C  0.21302542  0.88255211  0.88250086     0.10690
S1147       S  0.26008870  0.98430389  0.87094973    -0.32670
S1148       S  0.19331059  0.84297118  0.89028171    -0.32670
H1149       H  0.16642936  0.83799741  0.87537323     0.28700
H1150       H  0.25990232  0.98986029  0.91583134     0.28690
H1151       H  0.22339391  0.93752322  0.81247242     0.19290
H1152       H  0.23138673  0.88945298  0.94696325     0.19290
C1153       C  0.24174945  0.93484956  0.57526501    -0.06540
C1154       C  0.22348358  0.90363184  0.57355510    -0.17670
C1155       C  0.20606406  0.88595766  0.60945671     0.10660
C1156       C  0.20700366  0.89926311  0.64911909    -0.06470
C1157       C  0.22507572  0.93040920  0.65150521    -0.17700
C1158       C  0.24257675  0.94842453  0.61493090     0.10690
S1159       S  0.18110086  0.84653155  0.60169923    -0.32670
S1160       S  0.26450116  0.98838093  0.61870912    -0.32670
H1161       H  0.25897726  0.98911155  0.66375940     0.28700
H1162       H  0.19691073  0.83965400  0.63011531     0.28690
H1163       H  0.22263107  0.89269536  0.54367234     0.19290
H1164       H  0.22543237  0.94050020  0.68200110     0.19290
C1165       C  0.34079965  0.00199761  0.99160879    -0.06540
C1166       C  0.35763074  0.01273448  0.53054418    -0.17670
C1167       C  0.38885305  0.02778479  0.52998033     0.10660
C1168       C  0.40368125  0.03000474  0.49023112    -0.06470
C1169       C  0.38722319  0.02011933  0.95172509    -0.17700
C1170       C  0.35744970  0.01059637  0.95131097     0.10690
S1171       S  0.40758865  0.04177592  0.58172816    -0.32670
S1172       S  0.34516735  0.01676032  0.89956491    -0.32670
H1173       H  0.32513752  0.02206333  0.91918244     0.28700
H1174       H  0.43576933  0.04863005  0.56956320     0.28690
H1175       H  0.34708144  0.00969362  0.56212186     0.19290
H1176       H  0.39830254  0.02217319  0.92084460     0.19290
C1177       C  0.44005387  0.85212316  0.65699804    -0.06540
C1178       C  0.41519176  0.83755076  0.62951773    -0.17670
C1179       C  0.41323981  0.85197535  0.59251329     0.10660
C1180       C  0.43713230  0.88140509  0.58141469    -0.06470
C1181       C  0.46109461  0.89667554  0.61016446    -0.17700
C1182       C  0.46250096  0.88260879  0.64825227     0.10690
S1183       S  0.37969043  0.83160909  0.56071933    -0.32670
S1184       S  0.49307824  0.90503679  0.68458939    -0.32670
H1185       H  0.47579146  0.89189109  0.72340586     0.28700
H1186       H  0.38034002  0.85665542  0.54621071     0.28690
H1187       H  0.39732418  0.81448566  0.63626371     0.19290
H1188       H  0.47908362  0.91956367  0.60250094     0.19290
C1189       C  0.44083500  0.85012625  0.84596776    -0.06540
C1190       C  0.46506260  0.86470368  0.87457771    -0.17670
C1191       C  0.46511160  0.88051631  0.91006885     0.10660
C1192       C  0.44010668  0.88150978  0.91823750    -0.06470
C1193       C  0.41625024  0.86795264  0.88898237    -0.17700
C1194       C  0.41652556  0.85265435  0.85261171     0.10690
S1195       S  0.49778841  0.89883877  0.94394077    -0.32670
S1196       S  0.38580787  0.83785059  0.81535318    -0.32670
H1197       H  0.40363872  0.84551184  0.77705653     0.28700
H1198       H  0.49592361  0.92261924  0.45529174     0.28690
H1199       H  0.48416488  0.86358499  0.86962063     0.19290
H1200       H  0.39719964  0.86905382  0.89476547     0.19290
C1201       C  0.43892913  0.01396877  0.48952999    -0.06540
C1202       C  0.42293545  0.99208662  0.52296080    -0.17670
C1203       C  0.42128953  0.96563968  0.52448564     0.10660
C1204       C  0.43863693  0.96160214  0.49458190    -0.06470
C1205       C  0.45554791  0.98381727  0.96190947    -0.17700
C1206       C  0.45473143  0.00903076  0.95776748     0.10690
S1207       S  0.39417428  0.93707933  0.56270309    -0.32670
S1208       S  0.47193399  0.03207908  0.90906175    -0.32670
H1209       H  0.44787277  0.03426712  0.90068916     0.28700
H1210       H  0.38533774  0.91339068  0.53457384     0.28690
H1211       H  0.40998769  0.99464009  0.54711337     0.19290
H1212       H  0.46865529  0.98100914  0.93821817     0.19290
C1213       C  0.79309272  0.31669415  0.65053467    -0.06540
C1214       C  0.78991392  0.33952857  0.63635422    -0.17670
C1215       C  0.80518410  0.35746496  0.59910763     0.10660
C1216       C  0.82439204  0.35279758  0.57506090    -0.06470
C1217       C  0.82896622  0.33126038  0.59022925    -0.17700
C1218       C  0.81421507  0.31371029  0.62804769     0.10690
S1219       S  0.79808886  0.38498533  0.58315599    -0.32670
S1220       S  0.82353050  0.28807596  0.64498503    -0.32670
H1221       H  0.83025713  0.29857271  0.68817341     0.28700
H1222       H  0.79980413  0.38248283  0.53754278     0.28690
H1223       H  0.77459494  0.34293204  0.65347869     0.19290
H1224       H  0.84418068  0.32805636  0.57227653     0.19290
C1225       C  0.79121217  0.31698322  0.84007788    -0.06540
C1226       C  0.77718161  0.32354452  0.87197194    -0.17670
C1227       C  0.79269790  0.34089731  0.90782293     0.10660
C1228       C  0.82306926  0.35175476  0.91285285    -0.06470
C1229       C  0.83757363  0.34618630  0.88032050    -0.17700
C1230       C  0.82204718  0.32918403  0.84373826     0.10690
S1231       S  0.77229705  0.34823760  0.94616042    -0.32670
S1232       S  0.84295215  0.32469239  0.80237515    -0.32670
H1233       H  0.82715233  0.32566384  0.76651514     0.28700
H1234       H  0.79656422  0.37700220  0.45593198     0.28690
H1235       H  0.75370453  0.31474791  0.86932998     0.19290
H1236       H  0.86100288  0.35492062  0.88362532     0.19290
C1237       C  0.68463586  0.20677261  0.84887696    -0.06540
C1238       C  0.68241962  0.18017017  0.85850934    -0.17670
C1239       C  0.66582476  0.16184248  0.89498015     0.10660
C1240       C  0.65111531  0.17024390  0.92270763    -0.06470
C1241       C  0.65284955  0.19639219  0.91296065    -0.17700
C1242       C  0.66968495  0.21491947  0.87710350     0.10690
S1243       S  0.66522646  0.12877455  0.90497357    -0.32670
S1244       S  0.67266768  0.24949307  0.87173830    -0.32670
H1245       H  0.70397231  0.26678165  0.86748987     0.28700
H1246       H  0.63846264  0.11267317  0.92967608     0.28690
H1247       H  0.69371868  0.17352931  0.83750313     0.19290
H1248       H  0.64174735  0.20297377  0.93459035     0.19290
C1249       C  0.68120406  0.20273908  0.65633979    -0.06540
C1250       C  0.66153975  0.20863710  0.63649672    -0.17670
C1251       C  0.64408504  0.19258552  0.60067384     0.10660
C1252       C  0.64573701  0.16960164  0.58404940    -0.06470
C1253       C  0.66423420  0.16269241  0.60462015    -0.17700
C1254       C  0.68140990  0.17843118  0.64093522     0.10690
S1255       S  0.62106949  0.20338006  0.57663973    -0.32670
S1256       S  0.70260233  0.16586544  0.66588934    -0.32670
H1257       H  0.69286204  0.16576473  0.70892435     0.28700
H1258       H  0.62463375  0.19819706  0.53272743     0.28690
H1259       H  0.66044947  0.22671685  0.64776782     0.19290
H1260       H  0.66538556  0.14489565  0.59208697     0.19290
loop_ 
_geom_bond_atom_site_label_1 
_geom_bond_atom_site_label_2 
_geom_bond_distance 
_geom_bond_site_symmetry_2 
_ccdc_geom_bond_type 
O1           Ni9   1.915       .  S
O1           C11   1.281       .  A
O2           Ni9   1.911       .  S
O2           C12   1.280       .  A
O3           Ni9   1.917       .  S
O3           C13   1.283       .  A
O4           Ni9   1.914       .  S
O4           C14   1.280       .  A
O5          Ni10   1.918       .  S
O5           C14   1.282       .  A
O6          Ni10   1.914       .  S
O6           C13   1.279       .  A
O7          Ni10   1.924       .  S
O7           C12   1.282       .  A
O8          Ni10   1.927       .  S
O8           C11   1.283       .  A
Ni9         Ni10   2.381       .  S
C11         C619   1.498       .  S
C12         C595   1.480       .  S
C13         C583   1.493       .  S
C14         C607   1.487       .  S
C15         C574   1.491       .  S
C15          C20   1.409   1_556  A
C15         C646   1.411       .  A
C16          C17   1.403       .  A
C16         C645   1.411       .  A
C16          H21   1.083       .  S
C17         C562   1.477       .  S
C17         C648   1.399       .  A
C18          C19   1.398   1_556  A
C18         C647   1.399       .  A
C18          H22   1.084   1_556  S
C19         C550   1.478       .  S
C19          C20   1.400       .  A
C20          H23   1.083       .  S
C24         C535   1.521   1_565  S
C24          C29   1.415       .  A
C24         C655   1.424       .  A
C25          C26   1.411       .  A
C25         C654   1.424   1_554  A
C25          H30   1.075       .  S
C26         C523   1.493       .  S
C26         C657   1.400   1_554  A
C27          C28   1.391       .  A
C27         C656   1.400       .  A
C27          H31   1.085       .  S
C28         C514   1.476       .  S
C28          C29   1.394       .  A
C29          H32   1.075       .  S
C33         C499   1.492       .  S
C33          C38   1.409       .  A
C33         C664   1.412   1_554  A
C34          C35   1.400       .  A
C34         C663   1.412       .  A
C34          H39   1.083       .  S
C35         C490   1.477       .  S
C35         C666   1.397       .  A
C36          C37   1.397       .  A
C36         C665   1.397   1_554  A
C36          H40   1.084       .  S
C37         C478   1.472       .  S
C37          C38   1.402       .  A
C38          H41   1.082       .  S
C42         C466   1.491   1_554  S
C42          C43   1.411       .  A
C42         C677   1.408   1_554  A
C43          C44   1.408       .  A
C43          H48   1.083       .  S
C44         C622   1.479       .  S
C44          C45   1.401       .  A
C45         C676   1.398   1_554  A
C45         H679   1.084       .  S
C46         C610   1.473       .  S
C46          C47   1.396       .  A
C46         C675   1.398       .  A
C47         C672   1.408       .  A
C47          H50   1.084       .  S
H49         C675   1.084       .  S
C51          C52   1.376       .  D
C51         C538   1.492       .  S
C51         C571   1.505       .  S
C52         C463   1.504       .  S
C52         C502   1.505       .  S
O53         Ni61   1.902       .  S
O53          C63   1.278       .  A
O54         Ni61   1.903       .  S
O54          C64   1.278       .  A
O55         Ni61   1.929       .  S
O55          C65   1.285       .  A
O56         Ni61   1.928       .  S
O56          C66   1.284       .  A
O57         Ni62   1.903       .  S
O57          C66   1.277       .  A
O58         Ni62   1.903       .  S
O58          C65   1.278       .  A
O59         Ni62   1.934       .  S
O59          C64   1.286       .  A
O60         Ni62   1.931       .  S
O60          C63   1.285       .  A
Ni61        Ni62   2.386       .  S
C63         C418   1.484       .  S
C64         C439   1.481       .  S
C65         C451   1.480       .  S
C66         C430   1.481       .  S
O67         Ni75   1.910       .  S
O67          C77   1.279       .  A
O68         Ni75   1.907       .  S
O68          C78   1.279       .  A
O69         Ni75   1.921       .  S
O69          C79   1.283       .  A
O70         Ni75   1.921       .  S
O70          C80   1.282       .  A
O71         Ni76   1.918       .  S
O71          C80   1.280       .  A
O72         Ni76   1.919       .  S
O72          C79   1.280       .  A
O73         Ni76   1.925       .  S
O73          C78   1.284       .  A
O74         Ni76   1.925       .  S
O74          C77   1.282       .  A
Ni75        Ni76   2.387       .  S
C77         C526   1.474       .  S
C78         C403   1.479       .  S
C79         C394   1.493       .  S
C80         C511   1.476       .  S
C81         C382   1.521       .  S
C81          C86   1.417       .  A
C81         C712   1.420       .  A
C82          C83   1.398       .  A
C82         C711   1.420   1_554  A
C82          H87   1.078       .  S
C83         C454   1.478       .  S
C83          C84   1.393   1_554  A
C84         C715   1.396       .  A
C84          H88   1.084       .  S
C85         C442   1.478       .  S
C85          C86   1.405       .  A
C85         C714   1.396       .  A
C86          H89   1.076       .  S
C90         C367   1.524   1_455  S
C90          C91   1.415       .  A
C90         C725   1.423       .  A
C91          C92   1.397       .  A
C91          H96   1.072       .  S
C92         C406   1.473       .  S
C92          C93   1.392       .  A
C93         C724   1.396       .  A
C93          H97   1.084       .  S
C94         C391   1.482       .  S
C94          C95   1.407       .  A
C94         C723   1.396       .  A
C95         C720   1.423       .  A
C95          H98   1.076       .  S
C99         C355   1.493       .  S
C99         C100   1.409       .  A
C99         C734   1.411       .  A
C100        C101   1.404       .  A
C100        H105   1.082       .  S
C101        C598   1.478       .  S
C101        C102   1.400       .  A
C102        C733   1.397       .  A
C102        H106   1.084       .  S
C103        C586   1.477       .  S
C103        C104   1.399       .  A
C103        C732   1.397   1_554  A
C104        C729   1.411   1_554  A
C104        H107   1.084       .  S
C108        C973   1.490       .  S
C108        C109   1.408       .  A
C108        C743   1.411   1_554  A
C109        C110   1.399       .  A
C109        H114   1.084       .  S
C110        C331   1.479       .  S
C110        C111   1.398       .  A
C111        C742   1.399   1_554  A
C111        H115   1.084   1_554  S
C112        C319   1.477       .  S
C112        C113   1.403       .  A
C112        C741   1.399       .  A
C113        C738   1.411       .  A
C113        H116   1.083       .  S
C117        C118   1.373       .  D
C117        C370   1.498       .  S
C117        C379   1.491       .  S
C118        C346   1.501       .  S
C118        C358   1.510       .  S
O119       Ni127   1.925       .  S
O119        C129   1.283       .  A
O120       Ni127   1.925       .  S
O120        C130   1.284       .  A
O121       Ni127   1.914       .  S
O121        C131   1.281       .  A
O122       Ni127   1.913       .  S
O122        C132   1.279       .  A
O123       Ni128   1.920       .  S
O123        C132   1.283       .  A
O124       Ni128   1.916       .  S
O124        C131   1.281       .  A
O125       Ni128   1.908       .  S
O125        C130   1.278       .  A
O126       Ni128   1.906       .  S
O126        C129   1.280       .  A
Ni127      Ni128   2.382       .  S
C129        C487   1.481       .  S
C130        C310   1.490       .  S
C131        C295   1.480       .  S
C132        C475   1.493       .  S
O133       Ni141   1.905       .  S
O133        C143   1.278       .  A
O134       Ni141   1.908       .  S
O134        C144   1.280       .  A
O135       Ni141   1.918       .  S
O135        C145   1.282       .  A
O136       Ni141   1.923       .  S
O136        C146   1.283       .  A
O137       Ni142   1.913       .  S
O137        C146   1.280       .  A
O138       Ni142   1.912       .  S
O138        C145   1.281       .  A
O139       Ni142   1.926       .  S
O139        C144   1.283       .  A
O140       Ni142   1.923       .  S
O140        C143   1.283       .  A
Ni141      Ni142   2.385       .  S
C143        C274   1.481       .  S
C144        C322   1.486       .  S
C145        C334   1.482       .  S
C146        C283   1.483       .  S
O147       Ni155   1.928       .  S
O147        C157   1.284       .  A
O148       Ni155   1.927       .  S
O148        C158   1.283       .  A
O149       Ni155   1.914       .  S
O149        C159   1.281       .  A
O150       Ni155   1.917       .  S
O150        C160   1.281       .  A
O151       Ni156   1.916       .  S
O151        C160   1.282       .  A
O152       Ni156   1.916       .  S
O152        C159   1.281       .  A
O153       Ni156   1.908       .  S
O153        C158   1.280       .  A
O154       Ni156   1.906       .  S
O154        C157   1.278       .  A
Ni155      Ni156   2.385       .  S
C157        C262   1.480       .  S
C158        C559   1.484       .  S
C159        C547   1.484       .  S
C160        C250   1.483       .  S
C161        C238   1.503   1_556  S
C161        C166   1.417   1_556  A
C161        C792   1.413       .  A
C162        C163   1.406       .  A
C162        C791   1.413       .  A
C162        H167   1.081       .  S
C163        C427   1.479       .  S
C163        C794   1.399       .  A
C164        C165   1.394   1_556  A
C164        C793   1.399       .  A
C164        H168   1.085       .  S
C165        C415   1.484       .  S
C165        C166   1.399       .  A
C166        H169   1.081       .  S
C170        C223   1.530       .  S
C170        C171   1.418       .  A
C170        C805   1.428   1_554  A
C171        C172   1.402       .  A
C171        H176   1.071       .  S
C172        C259   1.479       .  S
C172        C173   1.390       .  A
C173        C804   1.393   1_554  A
C173        H177   1.085       .  S
C174        C247   1.483       .  S
C174        C175   1.403       .  A
C174        C803   1.393       .  A
C175        C800   1.428       .  A
C175        H178   1.076       .  S
C179        C214   1.489       .  S
C179        C180   1.412   1_556  A
C179        C814   1.408       .  A
C180        C181   1.402       .  A
C180        H185   1.084       .  S
C181        C307   1.475       .  S
C181        C182   1.397   1_554  A
C182        C813   1.398       .  A
C182        H186   1.085   1_556  S
C183        C298   1.478       .  S
C183        C184   1.401       .  A
C183        C812   1.398       .  A
C184        C809   1.408       .  A
C184        H187   1.083       .  S
C188        C202   1.493       .  S
C188        C193   1.408       .  A
C188        C819   1.414   1_554  A
C189        C190   1.408       .  A
C189        C818   1.414       .  A
C189        H194   1.082       .  S
C190        C286   1.483       .  S
C190        C821   1.401       .  A
C191        C192   1.395       .  A
C191        C820   1.401   1_554  A
C191        H195   1.084       .  S
C192        C271   1.477       .  S
C192        C193   1.395       .  A
C193        H196   1.084       .  S
C197        C198   1.362       .  D
C197        C226   1.491       .  S
C197        C235   1.495       .  S
C198        C199   1.500       .  S
C198        C211   1.500   1_554  S
C199        C204   1.410       .  A
C199        C830   1.408   1_554  A
C200        C201   1.405       .  A
C200        C829   1.408       .  A
C200        H209   1.080       .  S
C201        C832   1.417       .  A
C201        S205   1.802       .  S
C202        C203   1.405       .  A
C202        C831   1.417   1_554  A
C203        C204   1.389       .  A
C203        H210   1.083       .  S
C204        S206   1.796       .  S
S205        H208   1.406       .  S
S206        H207   1.401       .  S
C211        C216   1.415   1_556  A
C211        C842   1.406       .  A
C212        C213   1.393       .  A
C212        C841   1.406       .  A
C212        H221   1.084       .  S
C213        C844   1.415       .  A
C213        S217   1.805       .  S
C214        C215   1.407   1_556  A
C214        C843   1.415       .  A
C215        C216   1.406       .  A
C215        H222   1.082       .  S
C216        S218   1.801       .  S
S217        H220   1.407       .  S
S218        H219   1.406       .  S
C223        C228   1.437       .  A
C223        C854   1.419   1_554  A
C224        C225   1.399       .  A
C224        C853   1.419       .  A
C224        H233   1.076       .  S
C225        C856   1.407       .  A
C225        S229   1.808       .  S
C226        C227   1.392       .  A
C226        C855   1.407   1_554  A
C227        C228   1.401       .  A
C227        H234   1.082       .  S
C228        S230   1.800       .  S
S229        H232   1.402       .  S
S230        H231   1.405       .  S
C235        C240   1.415       .  A
C235        C866   1.405   1_554  A
C236        C237   1.410       .  A
C236        C865   1.405       .  A
C236        H245   1.083       .  S
C237        C868   1.424       .  A
C237        S241   1.802       .  S
C238        C239   1.404       .  A
C238        C867   1.424   1_554  A
C239        C240   1.385       .  A
C239        H246   1.081       .  S
C240        S242   1.803       .  S
S241        H244   1.407       .  S
S242        H243   1.394       .  S
C247        C248   1.403       .  A
C247        C252   1.413       .  A
C248        C249   1.393       .  A
C248        H257   1.085       .  S
C249        C250   1.414       .  A
C249        S253   1.802       .  S
C250        C251   1.409       .  A
C251        C252   1.405       .  A
C251        H258   1.084       .  S
C252        S254   1.803       .  S
S253        H256   1.407       .  S
S254        H255   1.405       .  S
C259        C260   1.400       .  A
C259        C264   1.411       .  A
C260        C261   1.396       .  A
C260        H269   1.084       .  S
C261        C262   1.417       .  A
C261        S265   1.803       .  S
C262        C263   1.404       .  A
C263        C264   1.405       .  A
C263        H270   1.083       .  S
C264        S266   1.805       .  S
S265        H268   1.407       .  S
S266        H267   1.407       .  S
C271        C272   1.400       .  A
C271        C276   1.414       .  A
C272        C273   1.398       .  A
C272        H281   1.084       .  S
C273        C274   1.418       .  A
C273        S277   1.803       .  S
C274        C275   1.404       .  A
C275        C276   1.397       .  A
C275        H282   1.084       .  S
C276        S278   1.806       .  S
S277        H280   1.408       .  S
S278        H279   1.407       .  S
C283        C284   1.406       .  A
C283        C288   1.416       .  A
C284        C285   1.403       .  A
C284        H293   1.084       .  S
C285        C286   1.413       .  A
C285        S289   1.803       .  S
C286        C287   1.404       .  A
C287        C288   1.397       .  A
C287        H294   1.084       .  S
C288        S290   1.803       .  S
S289        H292   1.406       .  S
S290        H291   1.408       .  S
C295        C296   1.404       .  A
C295        C300   1.416       .  A
C296        C297   1.400       .  A
C296        H305   1.082       .  S
C297        C298   1.412       .  A
C297        S301   1.810       .  S
C298        C299   1.401       .  A
C299        C300   1.400       .  A
C299        H306   1.084       .  S
C300        S302   1.803       .  S
S301        H934   1.406       .  S
S302        H303   1.408       .  S
H304        S931   1.406       .  S
C307        C308   1.398       .  A
C307        C312   1.411       .  A
C308        C309   1.396       .  A
C308        H317   1.085       .  S
C309        C310   1.421       .  A
C309        S313   1.802       .  S
C310        C311   1.410       .  A
C311        C312   1.403       .  A
C311        H318   1.083       .  S
C312        S314   1.805       .  S
S313        H316   1.408       .  S
S314        H315   1.405       .  S
C319        C320   1.403       .  A
C319        C324   1.410       .  A
C320        C321   1.405       .  A
C320        H329   1.084       .  S
C321        C322   1.418       .  A
C321        S325   1.802       .  S
C322        C323   1.406       .  A
C323        C324   1.395       .  A
C323        H330   1.084       .  S
C324        S326   1.805       .  S
S325        H328   1.408       .  S
S326        H957   1.406       .  S
H327        S956   1.406       .  S
C331        C332   1.403       .  A
C331        C336   1.412       .  A
C332        C333   1.400       .  A
C332        H341   1.084       .  S
C333        C334   1.416       .  A
C333        S337   1.802       .  S
C334        C335   1.406       .  A
C335        C336   1.397       .  A
C335        H342   1.084       .  S
C336        S338   1.805       .  S
S337        H340   1.408       .  S
S338        H339   1.407       .  S
C343        C738   1.490       .  S
C343        C348   1.416       .  A
C343        C974   1.406       .  A
C344        C345   1.397       .  A
C344        C973   1.406       .  A
C344        H353   1.083       .  S
C345        C976   1.413       .  A
C345        S349   1.800       .  S
C346        C347   1.406       .  A
C346        C975   1.413       .  A
C347        C348   1.398       .  A
C347        H354   1.079       .  S
C348        S350   1.803       .  S
S349        H352   1.403       .  S
S350        H351   1.407       .  S
C355        C360   1.415       .  A
C355        C986   1.403       .  A
C356        C357   1.403       .  A
C356        C985   1.403   1_554  A
C356        H365   1.082       .  S
C357        C988   1.420       .  A
C357        S361   1.797       .  S
C358        C359   1.409       .  A
C358        C987   1.420       .  A
C359        C360   1.398       .  A
C359        H366   1.084       .  S
C360        S362   1.802       .  S
S361        H364   1.406       .  S
S362        H363   1.406       .  S
C367        C372   1.423       .  A
C367        C998   1.417       .  A
C368        C369   1.406       .  A
C368        C997   1.417       .  A
C368        H377   1.075       .  S
C369       C1000   1.409       .  A
C369        S373   1.804       .  S
C370        C371   1.401       .  A
C370        C999   1.409       .  A
C371        C372   1.398       .  A
C371        H378   1.081       .  S
C372        S374   1.812       .  S
S373        H376   1.406       .  S
S374        H375   1.407       .  S
C379        C380   1.403       .  A
C379       C1014   1.410   1_655  A
C380        C381   1.406   1_655  A
C380        H389   1.083       .  S
C381        C382   1.429       .  A
C381        S385   1.803       .  S
C382       C1013   1.414       .  A
C383        C384   1.391       .  A
C383       C1012   1.414       .  A
C383        H390   1.076       .  S
C384       C1009   1.410   1_455  A
C384        S386   1.805       .  S
S385        H388   1.408       .  S
S386        H387   1.394   1_455  S
C391        C392   1.401       .  A
C391        C396   1.413       .  A
C392        C393   1.401       .  A
C392        H401   1.084       .  S
C393        C394   1.420       .  A
C393        S397   1.799       .  S
C394        C395   1.407       .  A
C395        C396   1.400       .  A
C395        H402   1.084       .  S
C396        S398   1.804       .  S
S397        H400   1.408       .  S
S398        H399   1.406       .  S
C403        C404   1.405       .  A
C403        C408   1.414       .  A
C404        C405   1.396       .  A
C404        H413   1.082       .  S
C405        C406   1.409       .  A
C405        S409   1.805       .  S
C406        C407   1.403       .  A
C407        C408   1.401       .  A
C407        H414   1.084       .  S
C408        S410   1.803       .  S
S409       H1042   1.405       .  S
S410        H411   1.408       .  S
H412       S1039   1.405       .  S
C415        C416   1.406       .  A
C415        C420   1.411       .  A
C416        C417   1.399       .  A
C416        H425   1.084       .  S
C417        C418   1.414       .  A
C417        S421   1.801       .  S
C418        C419   1.409       .  A
C419        C420   1.400       .  A
C419        H426   1.084       .  S
C420        S422   1.803       .  S
S421        H424   1.406       .  S
S422        H423   1.406       .  S
C427        C428   1.401       .  A
C427        C432   1.413       .  A
C428        C429   1.394       .  A
C428        H437   1.085       .  S
C429        C430   1.417       .  A
C429        S433   1.804       .  S
C430        C431   1.405       .  A
C431        C432   1.403       .  A
C431        H438   1.084       .  S
C432        S434   1.803       .  S
S433        H436   1.408       .  S
S434        H435   1.406       .  S
C439        C440   1.406       .  A
C439        C444   1.414       .  A
C440        C441   1.398       .  A
C440        H449   1.084       .  S
C441        C442   1.410       .  A
C441        S445   1.804       .  S
C442        C443   1.404       .  A
C443        C444   1.403       .  A
C443        H450   1.084       .  S
C444        S446   1.802       .  S
S445       H1078   1.406       .  S
S446        H447   1.407       .  S
H448       S1075   1.406       .  S
C451        C452   1.408       .  A
C451        C456   1.413       .  A
C452        C453   1.398       .  A
C452        H461   1.083       .  S
C453        C454   1.409       .  A
C453        S457   1.804       .  S
C454        C455   1.405       .  A
C455        C456   1.400       .  A
C455        H462   1.084       .  S
C456        S458   1.802       .  S
S457        H460   1.406       .  S
S458        H459   1.408       .  S
C463        C464   1.410   1_556  A
C463       C1098   1.416       .  A
C464        C465   1.407       .  A
C464        H473   1.082       .  S
C465        C466   1.416   1_554  A
C465        S469   1.802       .  S
C466       C1097   1.402       .  A
C467        C468   1.389       .  A
C467       C1096   1.402       .  A
C467        H474   1.084       .  S
C468       C1093   1.416       .  A
C468        S470   1.798       .  S
S469        H472   1.406       .  S
S470        H471   1.404       .  S
C475        C476   1.410       .  A
C475        C480   1.422       .  A
C476        C477   1.400       .  A
C476        H485   1.083       .  S
C477        C478   1.409       .  A
C477        S481   1.805       .  S
C478        C479   1.399       .  A
C479        C480   1.398       .  A
C479        H486   1.084       .  S
C480        S482   1.801       .  S
S481        H484   1.403       .  S
S482        H483   1.408       .  S
C487        C488   1.404       .  A
C487        C492   1.417       .  A
C488        C489   1.393       .  A
C488        H497   1.084       .  S
C489        C490   1.411       .  A
C489        S493   1.805       .  S
C490        C491   1.403       .  A
C491        C492   1.404       .  A
C491        H498   1.084       .  S
C492        S494   1.802       .  S
S493       H1126   1.407       .  S
S494        H495   1.407       .  S
H496       S1123   1.407       .  S
C499        C504   1.414       .  A
C499       C1130   1.404   1_554  A
C500        C501   1.397       .  A
C500       C1129   1.404       .  A
C500        H509   1.084       .  S
C501       C1132   1.421       .  A
C501        S505   1.801       .  S
C502        C503   1.408   1_556  A
C502       C1131   1.421       .  A
C503        C504   1.402       .  A
C503        H510   1.082       .  S
C504        S506   1.810       .  S
S505        H508   1.394       .  S
S506        H507   1.407       .  S
C511        C512   1.404       .  A
C511        C516   1.412       .  A
C512        C513   1.403       .  A
C512        H521   1.084       .  S
C513        C514   1.413       .  A
C513        S517   1.804       .  S
C514        C515   1.400       .  A
C515        C516   1.394       .  A
C515        H522   1.085       .  S
C516        S518   1.796       .  S
S517        H520   1.405       .  S
S518        H519   1.404       .  S
C523        C524   1.407       .  A
C523        C528   1.416       .  A
C524        C525   1.390       .  A
C524        H533   1.084       .  S
C525        C526   1.407       .  A
C525        S529   1.802       .  S
C526        C527   1.405       .  A
C527        C528   1.412       .  A
C527        H534   1.083       .  S
C528        S530   1.805       .  S
S529        H532   1.406       .  S
S530        H531   1.407       .  S
C535        C540   1.424       .  A
C535       C1166   1.418       .  A
C536        C537   1.406       .  A
C536       C1165   1.418   1_554  A
C536        H545   1.077       .  S
C537        C538   1.414   1_554  A
C537        S541   1.810       .  S
C538       C1169   1.396       .  A
C539        C540   1.391       .  A
C539       C1168   1.396       .  A
C539        H546   1.082       .  S
C540        S542   1.807       .  S
S541        H544   1.401       .  S
S542        H543   1.408       .  S
C547        C548   1.406       .  A
C547        C552   1.417       .  A
C548        C549   1.396       .  A
C548        H557   1.084       .  S
C549        C550   1.412       .  A
C549        S553   1.805       .  S
C550        C551   1.402       .  A
C551        C552   1.400       .  A
C551        H558   1.084       .  S
C552        S554   1.802       .  S
S553        H556   1.407       .  S
S554        H555   1.408       .  S
C559        C560   1.405       .  A
C559        C564   1.417       .  A
C560        C561   1.395       .  A
C560        H569   1.083       .  S
C561        C562   1.411       .  A
C561        S565   1.805       .  S
C562        C563   1.403       .  A
C563        C564   1.404       .  A
C563        H570   1.084       .  S
C564        S566   1.802       .  S
S565       H1198   1.406       .  S
S566        H567   1.408       .  S
H568       S1195   1.406       .  S
C571        C572   1.407   1_546  A
C571       C1206   1.417       .  A
C572        C573   1.393       .  A
C572        H581   1.079       .  S
C573        C574   1.414   1_554  A
C573        S577   1.806       .  S
C574       C1205   1.408       .  A
C575        C576   1.403   1_565  A
C575       C1204   1.408       .  A
C575        H582   1.083       .  S
C576       C1201   1.417       .  A
C576        S578   1.796       .  S
S577        H580   1.407       .  S
S578        H579   1.401       .  S
C583        C584   1.409       .  A
C583        C588   1.421       .  A
C584        C585   1.398       .  A
C584        H593   1.083       .  S
C585        C586   1.411       .  A
C585        S589   1.805       .  S
C586        C587   1.400       .  A
C587        C588   1.399       .  A
C587        H594   1.084       .  S
C588        S590   1.801       .  S
S589        H592   1.404       .  S
S590        H591   1.408       .  S
C595        C596   1.402       .  A
C595        C600   1.416       .  A
C596        C597   1.394       .  A
C596        H605   1.083       .  S
C597        C598   1.413       .  A
C597        S601   1.805       .  S
C598        C599   1.403       .  A
C599        C600   1.405       .  A
C599        H606   1.084       .  S
C600        S602   1.802       .  S
S601       H1234   1.404       .  S
S602        H603   1.407       .  S
H604       S1231   1.404       .  S
C607        C608   1.410       .  A
C607        C612   1.419       .  A
C608        C609   1.403       .  A
C608        H617   1.083       .  S
C609        C610   1.409       .  A
C609        S613   1.804       .  S
C610        C611   1.400       .  A
C611        C612   1.395       .  A
C611        H618   1.085       .  S
C612        S614   1.802       .  S
S613        H616   1.404       .  S
S614        H615   1.407       .  S
C619        C620   1.411       .  A
C619        C624   1.421       .  A
C620        C621   1.400       .  A
C620        H629   1.083       .  S
C621        C622   1.410       .  A
C621        S625   1.805       .  S
C622        C623   1.401       .  A
C623        C624   1.403       .  A
C623        H630   1.084       .  S
C624        S626   1.801       .  S
S625        H628   1.405       .  S
S626        H627   1.408       .  S
O631       Ni639   1.915       .  S
O631        C641   1.281       .  A
O632       Ni639   1.911       .  S
O632        C642   1.280       .  A
O633       Ni639   1.917       .  S
O633        C643   1.283       .  A
O634       Ni639   1.914       .  S
O634        C644   1.280       .  A
O635       Ni640   1.918       .  S
O635        C644   1.282       .  A
O636       Ni640   1.914       .  S
O636        C643   1.279       .  A
O637       Ni640   1.924       .  S
O637        C642   1.282       .  A
O638       Ni640   1.927       .  S
O638        C641   1.283       .  A
Ni639      Ni640   2.381       .  S
C641       C1249   1.498       .  S
C642       C1225   1.480       .  S
C643       C1213   1.493       .  S
C644       C1237   1.487       .  S
C645       C1204   1.491       .  S
C645        C650   1.409       .  A
C646        C647   1.403       .  A
C646        H651   1.083       .  S
C647       C1192   1.477       .  S
C648        C649   1.398       .  A
C648        H652   1.084       .  S
C649       C1180   1.478       .  S
C649        C650   1.400       .  A
C650        H653   1.083       .  S
C654       C1165   1.521   1_565  S
C654        C659   1.415       .  A
C655        C656   1.411       .  A
C655        H660   1.075       .  S
C656       C1153   1.493       .  S
C657        C658   1.391       .  A
C657        H661   1.085       .  S
C658       C1144   1.476       .  S
C658        C659   1.394       .  A
C659        H662   1.075       .  S
C663       C1129   1.492       .  S
C663        C668   1.409       .  A
C664        C665   1.400       .  A
C664        H669   1.083       .  S
C665       C1120   1.477       .  S
C666        C667   1.397       .  A
C666        H670   1.084       .  S
C667       C1108   1.472       .  S
C667        C668   1.402       .  A
C668        H671   1.082       .  S
C672       C1096   1.491       .  S
C672        C673   1.411       .  A
C673        C674   1.408       .  A
C673        H678   1.083       .  S
C674       C1252   1.479       .  S
C674        C675   1.401       .  A
C676       C1240   1.473       .  S
C676        C677   1.396       .  A
C677        H680   1.084       .  S
C681        C682   1.376       .  D
C681       C1168   1.492       .  S
C681       C1201   1.505       .  S
C682       C1093   1.504       .  S
C682       C1132   1.505       .  S
O683       Ni691   1.902       .  S
O683        C693   1.278       .  A
O684       Ni691   1.903       .  S
O684        C694   1.278       .  A
O685       Ni691   1.929       .  S
O685        C695   1.285       .  A
O686       Ni691   1.928       .  S
O686        C696   1.284       .  A
O687       Ni692   1.903       .  S
O687        C696   1.277       .  A
O688       Ni692   1.903       .  S
O688        C695   1.278       .  A
O689       Ni692   1.934       .  S
O689        C694   1.286       .  A
O690       Ni692   1.931       .  S
O690        C693   1.285       .  A
Ni691      Ni692   2.386       .  S
C693       C1048   1.484       .  S
C694       C1069   1.481       .  S
C695       C1081   1.480       .  S
C696       C1060   1.481       .  S
O697       Ni705   1.910       .  S
O697        C707   1.279       .  A
O698       Ni705   1.907       .  S
O698        C708   1.279       .  A
O699       Ni705   1.921       .  S
O699        C709   1.283       .  A
O700       Ni705   1.921       .  S
O700        C710   1.282       .  A
O701       Ni706   1.918       .  S
O701        C710   1.280       .  A
O702       Ni706   1.919       .  S
O702        C709   1.280       .  A
O703       Ni706   1.925       .  S
O703        C708   1.284       .  A
O704       Ni706   1.925       .  S
O704        C707   1.282       .  A
Ni705      Ni706   2.387       .  S
C707       C1156   1.474       .  S
C708       C1033   1.479       .  S
C709       C1024   1.493       .  S
C710       C1141   1.476       .  S
C711       C1012   1.521   1_556  S
C711        C716   1.417       .  A
C712        C713   1.398       .  A
C712        H717   1.078       .  S
C713       C1084   1.478       .  S
C713        C714   1.393       .  A
C714        H718   1.084       .  S
C715       C1072   1.478       .  S
C715        C716   1.405       .  A
C716        H719   1.076       .  S
C720        C997   1.524   1_455  S
C720        C721   1.415   1_554  A
C721        C722   1.397       .  A
C721        H726   1.072       .  S
C722       C1036   1.473       .  S
C722        C723   1.392   1_556  A
C723        H727   1.084       .  S
C724       C1021   1.482       .  S
C724        C725   1.407       .  A
C725        H728   1.076       .  S
C729        C985   1.493       .  S
C729        C730   1.409       .  A
C730        C731   1.404       .  A
C730        H735   1.082       .  S
C731       C1228   1.478       .  S
C731        C732   1.400       .  A
C732        H736   1.084       .  S
C733       C1216   1.477       .  S
C733        C734   1.399       .  A
C734        H737   1.084       .  S
C738        C739   1.408       .  A
C739        C740   1.399       .  A
C739        H744   1.084       .  S
C740        C961   1.479       .  S
C740        C741   1.398       .  A
C741        H745   1.084       .  S
C742        C949   1.477       .  S
C742        C743   1.403       .  A
C743        H746   1.083       .  S
C747        C748   1.373       .  D
C747       C1000   1.498       .  S
C747       C1009   1.491       .  S
C748        C976   1.501       .  S
C748        C988   1.510       .  S
O749       Ni757   1.925       .  S
O749        C759   1.283       .  A
O750       Ni757   1.925       .  S
O750        C760   1.284       .  A
O751       Ni757   1.914       .  S
O751        C761   1.281       .  A
O752       Ni757   1.913       .  S
O752        C762   1.279       .  A
O753       Ni758   1.920       .  S
O753        C762   1.283       .  A
O754       Ni758   1.916       .  S
O754        C761   1.281       .  A
O755       Ni758   1.908       .  S
O755        C760   1.278       .  A
O756       Ni758   1.906       .  S
O756        C759   1.280       .  A
Ni757      Ni758   2.382       .  S
C759       C1117   1.481       .  S
C760        C940   1.490       .  S
C761        C925   1.480       .  S
C762       C1105   1.493       .  S
O763       Ni771   1.905       .  S
O763        C773   1.278       .  A
O764       Ni771   1.908       .  S
O764        C774   1.280       .  A
O765       Ni771   1.918       .  S
O765        C775   1.282       .  A
O766       Ni771   1.923       .  S
O766        C776   1.283       .  A
O767       Ni772   1.913       .  S
O767        C776   1.280       .  A
O768       Ni772   1.912       .  S
O768        C775   1.281       .  A
O769       Ni772   1.926       .  S
O769        C774   1.283       .  A
O770       Ni772   1.923       .  S
O770        C773   1.283       .  A
Ni771      Ni772   2.385       .  S
C773        C904   1.481       .  S
C774        C952   1.486       .  S
C775        C964   1.482       .  S
C776        C913   1.483       .  S
O777       Ni785   1.928       .  S
O777        C787   1.284       .  A
O778       Ni785   1.927       .  S
O778        C788   1.283       .  A
O779       Ni785   1.914       .  S
O779        C789   1.281       .  A
O780       Ni785   1.917       .  S
O780        C790   1.281       .  A
O781       Ni786   1.916       .  S
O781        C790   1.282       .  A
O782       Ni786   1.916       .  S
O782        C789   1.281       .  A
O783       Ni786   1.908       .  S
O783        C788   1.280       .  A
O784       Ni786   1.906       .  S
O784        C787   1.278       .  A
Ni785      Ni786   2.385       .  S
C787        C892   1.480       .  S
C788       C1189   1.484       .  S
C789       C1177   1.484       .  S
C790        C880   1.483       .  S
C791        C868   1.503       .  S
C791        C796   1.417       .  A
C792        C793   1.406       .  A
C792        H797   1.081       .  S
C793       C1057   1.479       .  S
C794        C795   1.394       .  A
C794        H798   1.085       .  S
C795       C1045   1.484       .  S
C795        C796   1.399       .  A
C796        H799   1.081       .  S
C800        C853   1.530       .  S
C800        C801   1.418       .  A
C801        C802   1.402       .  A
C801        H806   1.071       .  S
C802        C889   1.479       .  S
C802        C803   1.390       .  A
C803        H807   1.085       .  S
C804        C877   1.483       .  S
C804        C805   1.403       .  A
C805        H808   1.076       .  S
C809        C844   1.489       .  S
C809        C810   1.412       .  A
C810        C811   1.402       .  A
C810        H815   1.084       .  S
C811        C937   1.475       .  S
C811        C812   1.397       .  A
C812        H816   1.085       .  S
C813        C928   1.478       .  S
C813        C814   1.401       .  A
C814        H817   1.083       .  S
C818        C832   1.493       .  S
C818        C823   1.408       .  A
C819        C820   1.408       .  A
C819        H824   1.082       .  S
C820        C916   1.483       .  S
C821        C822   1.395       .  A
C821        H825   1.084       .  S
C822        C901   1.477       .  S
C822        C823   1.395       .  A
C823        H826   1.084       .  S
C827        C828   1.362       .  D
C827        C856   1.491       .  S
C827        C865   1.495       .  S
C828        C829   1.500       .  S
C828        C841   1.500       .  S
C829        C834   1.410       .  A
C830        C831   1.405       .  A
C830        H839   1.080       .  S
C831        S835   1.802       .  S
C832        C833   1.405       .  A
C833        C834   1.389       .  A
C833        H840   1.083       .  S
C834        S836   1.796       .  S
S835        H838   1.406       .  S
S836        H837   1.401       .  S
C841        C846   1.415       .  A
C842        C843   1.393       .  A
C842        H851   1.084       .  S
C843        S847   1.805       .  S
C844        C845   1.407       .  A
C845        C846   1.406       .  A
C845        H852   1.082       .  S
C846        S848   1.801       .  S
S847        H850   1.407       .  S
S848        H849   1.406       .  S
C853        C858   1.437       .  A
C854        C855   1.399       .  A
C854        H863   1.076       .  S
C855        S859   1.808       .  S
C856        C857   1.392       .  A
C857        C858   1.401       .  A
C857        H864   1.082       .  S
C858        S860   1.800       .  S
S859        H862   1.402       .  S
S860        H861   1.405       .  S
C865        C870   1.415       .  A
C866        C867   1.410       .  A
C866        H875   1.083       .  S
C867        S871   1.802       .  S
C868        C869   1.404       .  A
C869        C870   1.385       .  A
C869        H876   1.081       .  S
C870        S872   1.803       .  S
S871        H874   1.407       .  S
S872        H873   1.394       .  S
C877        C878   1.403       .  A
C877        C882   1.413       .  A
C878        C879   1.393       .  A
C878        H887   1.085       .  S
C879        C880   1.414       .  A
C879        S883   1.802       .  S
C880        C881   1.409       .  A
C881        C882   1.405       .  A
C881        H888   1.084       .  S
C882        S884   1.803       .  S
S883        H886   1.407       .  S
S884        H885   1.405       .  S
C889        C890   1.400       .  A
C889        C894   1.411       .  A
C890        C891   1.396       .  A
C890        H899   1.084       .  S
C891        C892   1.417       .  A
C891        S895   1.803       .  S
C892        C893   1.404       .  A
C893        C894   1.405       .  A
C893        H900   1.083       .  S
C894        S896   1.805       .  S
S895        H898   1.407       .  S
S896        H897   1.407       .  S
C901        C902   1.400       .  A
C901        C906   1.414       .  A
C902        C903   1.398       .  A
C902        H911   1.084       .  S
C903        C904   1.418       .  A
C903        S907   1.803       .  S
C904        C905   1.404       .  A
C905        C906   1.397       .  A
C905        H912   1.084       .  S
C906        S908   1.806       .  S
S907        H910   1.408       .  S
S908        H909   1.407       .  S
C913        C914   1.406       .  A
C913        C918   1.416       .  A
C914        C915   1.403       .  A
C914        H923   1.084       .  S
C915        C916   1.413       .  A
C915        S919   1.803       .  S
C916        C917   1.404       .  A
C917        C918   1.397       .  A
C917        H924   1.084       .  S
C918        S920   1.803       .  S
S919        H922   1.406       .  S
S920        H921   1.408       .  S
C925        C926   1.404       .  A
C925        C930   1.416       .  A
C926        C927   1.400       .  A
C926        H935   1.082       .  S
C927        C928   1.412       .  A
C927        S931   1.810       .  S
C928        C929   1.401       .  A
C929        C930   1.400       .  A
C929        H936   1.084       .  S
C930        S932   1.803       .  S
S932        H933   1.408       .  S
C937        C938   1.398       .  A
C937        C942   1.411       .  A
C938        C939   1.396       .  A
C938        H947   1.085       .  S
C939        C940   1.421       .  A
C939        S943   1.802       .  S
C940        C941   1.410       .  A
C941        C942   1.403       .  A
C941        H948   1.083       .  S
C942        S944   1.805       .  S
S943        H946   1.408       .  S
S944        H945   1.405       .  S
C949        C950   1.403       .  A
C949        C954   1.410       .  A
C950        C951   1.405       .  A
C950        H959   1.084       .  S
C951        C952   1.418       .  A
C951        S955   1.802       .  S
C952        C953   1.406       .  A
C953        C954   1.395       .  A
C953        H960   1.084       .  S
C954        S956   1.805       .  S
S955        H958   1.408       .  S
C961        C962   1.403       .  A
C961        C966   1.412       .  A
C962        C963   1.400       .  A
C962        H971   1.084       .  S
C963        C964   1.416       .  A
C963        S967   1.802       .  S
C964        C965   1.406       .  A
C965        C966   1.397       .  A
C965        H972   1.084       .  S
C966        S968   1.805       .  S
S967        H970   1.408       .  S
S968        H969   1.407       .  S
C973        C978   1.416   1_554  A
C974        C975   1.397       .  A
C974        H983   1.083       .  S
C975        S979   1.800       .  S
C976        C977   1.406   1_554  A
C977        C978   1.398       .  A
C977        H984   1.079       .  S
C978        S980   1.803       .  S
S979        H982   1.403       .  S
S980        H981   1.407       .  S
C985        C990   1.415       .  A
C986        C987   1.403       .  A
C986        H995   1.082       .  S
C987        S991   1.797       .  S
C988        C989   1.409   1_554  A
C989        C990   1.398       .  A
C989        H996   1.084       .  S
C990        S992   1.802       .  S
S991        H994   1.406       .  S
S992        H993   1.406       .  S
C997       C1002   1.423   1_554  A
C998        C999   1.406       .  A
C998       H1007   1.075       .  S
C999       S1003   1.804       .  S
C1000      C1001   1.401   1_554  A
C1001      C1002   1.398       .  A
C1001      H1008   1.081       .  S
C1002      S1004   1.812       .  S
S1003      H1006   1.406       .  S
S1004      H1005   1.407       .  S
C1009      C1010   1.403   1_554  A
C1010      C1011   1.406   1_655  A
C1010      H1019   1.083       .  S
C1011      C1012   1.429   1_556  A
C1011      S1015   1.803       .  S
C1013      C1014   1.391       .  A
C1013      H1020   1.076       .  S
C1014      S1016   1.805       .  S
S1015      H1018   1.408       .  S
S1016      H1017   1.394   1_455  S
C1021      C1022   1.401       .  A
C1021      C1026   1.413       .  A
C1022      C1023   1.401       .  A
C1022      H1031   1.084       .  S
C1023      C1024   1.420       .  A
C1023      S1027   1.799       .  S
C1024      C1025   1.407       .  A
C1025      C1026   1.400       .  A
C1025      H1032   1.084       .  S
C1026      S1028   1.804       .  S
S1027      H1030   1.408       .  S
S1028      H1029   1.406       .  S
C1033      C1034   1.405       .  A
C1033      C1038   1.414       .  A
C1034      C1035   1.396       .  A
C1034      H1043   1.082       .  S
C1035      C1036   1.409       .  A
C1035      S1039   1.805       .  S
C1036      C1037   1.403       .  A
C1037      C1038   1.401       .  A
C1037      H1044   1.084       .  S
C1038      S1040   1.803       .  S
S1040      H1041   1.408       .  S
C1045      C1046   1.406       .  A
C1045      C1050   1.411       .  A
C1046      C1047   1.399       .  A
C1046      H1055   1.084       .  S
C1047      C1048   1.414       .  A
C1047      S1051   1.801       .  S
C1048      C1049   1.409       .  A
C1049      C1050   1.400       .  A
C1049      H1056   1.084       .  S
C1050      S1052   1.803       .  S
S1051      H1054   1.406       .  S
S1052      H1053   1.406       .  S
C1057      C1058   1.401       .  A
C1057      C1062   1.413       .  A
C1058      C1059   1.394       .  A
C1058      H1067   1.085       .  S
C1059      C1060   1.417       .  A
C1059      S1063   1.804       .  S
C1060      C1061   1.405       .  A
C1061      C1062   1.403       .  A
C1061      H1068   1.084       .  S
C1062      S1064   1.803       .  S
S1063      H1066   1.408       .  S
S1064      H1065   1.406       .  S
C1069      C1070   1.406       .  A
C1069      C1074   1.414       .  A
C1070      C1071   1.398       .  A
C1070      H1079   1.084       .  S
C1071      C1072   1.410       .  A
C1071      S1075   1.804       .  S
C1072      C1073   1.404       .  A
C1073      C1074   1.403       .  A
C1073      H1080   1.084       .  S
C1074      S1076   1.802       .  S
S1076      H1077   1.407       .  S
C1081      C1082   1.408       .  A
C1081      C1086   1.413       .  A
C1082      C1083   1.398       .  A
C1082      H1091   1.083       .  S
C1083      C1084   1.409       .  A
C1083      S1087   1.804       .  S
C1084      C1085   1.405       .  A
C1085      C1086   1.400       .  A
C1085      H1092   1.084       .  S
C1086      S1088   1.802       .  S
S1087      H1090   1.406       .  S
S1088      H1089   1.408       .  S
C1093      C1094   1.410       .  A
C1094      C1095   1.407       .  A
C1094      H1103   1.082       .  S
C1095      C1096   1.416       .  A
C1095      S1099   1.802       .  S
C1097      C1098   1.389       .  A
C1097      H1104   1.084       .  S
C1098      S1100   1.798       .  S
S1099      H1102   1.406       .  S
S1100      H1101   1.404       .  S
C1105      C1106   1.410       .  A
C1105      C1110   1.422       .  A
C1106      C1107   1.400       .  A
C1106      H1115   1.083       .  S
C1107      C1108   1.409       .  A
C1107      S1111   1.805       .  S
C1108      C1109   1.399       .  A
C1109      C1110   1.398       .  A
C1109      H1116   1.084       .  S
C1110      S1112   1.801       .  S
S1111      H1114   1.403       .  S
S1112      H1113   1.408       .  S
C1117      C1118   1.404       .  A
C1117      C1122   1.417       .  A
C1118      C1119   1.393       .  A
C1118      H1127   1.084       .  S
C1119      C1120   1.411       .  A
C1119      S1123   1.805       .  S
C1120      C1121   1.403       .  A
C1121      C1122   1.404       .  A
C1121      H1128   1.084       .  S
C1122      S1124   1.802       .  S
S1124      H1125   1.407       .  S
C1129      C1134   1.414       .  A
C1130      C1131   1.397       .  A
C1130      H1139   1.084       .  S
C1131      S1135   1.801       .  S
C1132      C1133   1.408       .  A
C1133      C1134   1.402       .  A
C1133      H1140   1.082       .  S
C1134      S1136   1.810       .  S
S1135      H1138   1.394       .  S
S1136      H1137   1.407       .  S
C1141      C1142   1.404       .  A
C1141      C1146   1.412       .  A
C1142      C1143   1.403       .  A
C1142      H1151   1.084       .  S
C1143      C1144   1.413       .  A
C1143      S1147   1.804       .  S
C1144      C1145   1.400       .  A
C1145      C1146   1.394       .  A
C1145      H1152   1.085       .  S
C1146      S1148   1.796       .  S
S1147      H1150   1.405       .  S
S1148      H1149   1.404       .  S
C1153      C1154   1.407       .  A
C1153      C1158   1.416       .  A
C1154      C1155   1.390       .  A
C1154      H1163   1.084       .  S
C1155      C1156   1.407       .  A
C1155      S1159   1.802       .  S
C1156      C1157   1.405       .  A
C1157      C1158   1.412       .  A
C1157      H1164   1.083       .  S
C1158      S1160   1.805       .  S
S1159      H1162   1.406       .  S
S1160      H1161   1.407       .  S
C1165      C1170   1.424       .  A
C1166      C1167   1.406       .  A
C1166      H1175   1.077       .  S
C1167      C1168   1.414       .  A
C1167      S1171   1.810       .  S
C1169      C1170   1.391       .  A
C1169      H1176   1.082       .  S
C1170      S1172   1.807       .  S
S1171      H1174   1.401       .  S
S1172      H1173   1.408       .  S
C1177      C1178   1.406       .  A
C1177      C1182   1.417       .  A
C1178      C1179   1.396       .  A
C1178      H1187   1.084       .  S
C1179      C1180   1.412       .  A
C1179      S1183   1.805       .  S
C1180      C1181   1.402       .  A
C1181      C1182   1.400       .  A
C1181      H1188   1.084       .  S
C1182      S1184   1.802       .  S
S1183      H1186   1.407       .  S
S1184      H1185   1.408       .  S
C1189      C1190   1.405       .  A
C1189      C1194   1.417       .  A
C1190      C1191   1.395       .  A
C1190      H1199   1.083       .  S
C1191      C1192   1.411       .  A
C1191      S1195   1.805       .  S
C1192      C1193   1.403       .  A
C1193      C1194   1.404       .  A
C1193      H1200   1.084       .  S
C1194      S1196   1.802       .  S
S1196      H1197   1.408       .  S
C1201      C1202   1.407   1_545  A
C1202      C1203   1.393       .  A
C1202      H1211   1.079       .  S
C1203      C1204   1.414       .  A
C1203      S1207   1.806       .  S
C1205      C1206   1.403   1_565  A
C1205      H1212   1.083       .  S
C1206      S1208   1.796       .  S
S1207      H1210   1.407       .  S
S1208      H1209   1.401       .  S
C1213      C1214   1.409       .  A
C1213      C1218   1.421       .  A
C1214      C1215   1.398       .  A
C1214      H1223   1.083       .  S
C1215      C1216   1.411       .  A
C1215      S1219   1.805       .  S
C1216      C1217   1.400       .  A
C1217      C1218   1.399       .  A
C1217      H1224   1.084       .  S
C1218      S1220   1.801       .  S
S1219      H1222   1.404       .  S
S1220      H1221   1.408       .  S
C1225      C1226   1.402       .  A
C1225      C1230   1.416       .  A
C1226      C1227   1.394       .  A
C1226      H1235   1.083       .  S
C1227      C1228   1.413       .  A
C1227      S1231   1.805       .  S
C1228      C1229   1.403       .  A
C1229      C1230   1.405       .  A
C1229      H1236   1.084       .  S
C1230      S1232   1.802       .  S
S1232      H1233   1.407       .  S
C1237      C1238   1.410       .  A
C1237      C1242   1.419       .  A
C1238      C1239   1.403       .  A
C1238      H1247   1.083       .  S
C1239      C1240   1.409       .  A
C1239      S1243   1.804       .  S
C1240      C1241   1.400       .  A
C1241      C1242   1.395       .  A
C1241      H1248   1.085       .  S
C1242      S1244   1.802       .  S
S1243      H1246   1.404       .  S
S1244      H1245   1.407       .  S
C1249      C1250   1.411       .  A
C1249      C1254   1.421       .  A
C1250      C1251   1.400       .  A
C1250      H1259   1.083       .  S
C1251      C1252   1.410       .  A
C1251      S1255   1.805       .  S
C1252      C1253   1.401       .  A
C1253      C1254   1.403       .  A
C1253      H1260   1.084       .  S
C1254      S1256   1.801       .  S
S1255      H1258   1.405       .  S
S1256      H1257   1.408       .  S
