geometry optimzed in LAMMPS
_audit_creation_date              2020-11-30 
_audit_creation_method            'lammps2cif' 
_symmetry_space_group_name_H-M    'P1' 
_symmetry_Int_Tables_number       1 
_symmetry_cell_setting            triclinic 
loop_ 
_symmetry_equiv_pos_as_xyz 
  x,y,z 
_cell_length_a                    39.903083867304126 
_cell_length_b                    40.1063126436588 
_cell_length_c                    40.178990772707884 
_cell_angle_alpha                 90.06235981476344 
_cell_angle_beta                  90.1714133460962 
_cell_angle_gamma                 90.13413792574799 
loop_ 
_atom_site_label 
_atom_site_type_symbol 
_atom_site_fract_x 
_atom_site_fract_y 
_atom_site_fract_z 
_atom_site_charge 
C1          C  0.29506559  0.26581305  0.49914710     0.00540
C2          C  0.26966712  0.28882926  0.49753662     0.00540
C3          C  0.28662255  0.45405334  0.30079910     0.00540
C4          C  0.26158149  0.45759345  0.32379754     0.00540
C5          C  0.45964020  0.28608073  0.29995882     0.00540
C6          C  0.46325185  0.26073858  0.32295992     0.00540
C7          C  0.16295395  0.13981696  0.99926277     0.00540
C8          C  0.13782312  0.16326740  0.99676698     0.00540
C9          C  0.95958119  0.15511589  0.17345473     0.00540
C10         C  0.96017943  0.13185426  0.19907995     0.00540
C11         C  0.16463242  0.95715029  0.17543924     0.00540
C12         C  0.13970655  0.95519344  0.19925724     0.00540
C13         C  0.65359463  0.28691564  0.49813735     0.00540
C14         C  0.63209148  0.25987000  0.49889379     0.00540
C15         C  0.28955354  0.65109594  0.50438781     0.00540
C16         C  0.26351348  0.62885252  0.50106738     0.00540
C17         C  0.46138058  0.64287104  0.33879075     0.00540
C18         C  0.46192204  0.61867618  0.31427863     0.00540
C19         C  0.65648665  0.45482821  0.32507259     0.00540
C20         C  0.63227954  0.45311943  0.30078366     0.00540
C21         C  0.45832965  0.28375759  0.69330784     0.00540
C22         C  0.46029778  0.26120425  0.66772867     0.00540
C23         C  0.26905113  0.45333524  0.66486420     0.00540
C24         C  0.29278852  0.45410905  0.69008394     0.00540
C25         C  0.16006253  0.78607253  0.99939436     0.00540
C26         C  0.13892265  0.75823951  0.99764548     0.00540
C27         C  0.78014310  0.15891890  0.00161852     0.00540
C28         C  0.75601899  0.13446293  0.99852700     0.00540
C29         C  0.95933094  0.15502526  0.82346644     0.00540
C30         C  0.96156347  0.12837162  0.80137493     0.00540
C31         C  0.16470952  0.95974887  0.82217995     0.00540
C32         C  0.14176652  0.95750305  0.79629703     0.00540
C33         C  0.96396455  0.78308415  0.19281298     0.00540
C34         C  0.96383915  0.75992186  0.16711470     0.00540
C35         C  0.78576907  0.95802216  0.19608815     0.00540
C36         C  0.76178649  0.95612245  0.17117451     0.00540
N37         N  0.29153832  0.49149100  0.96104036    -0.06140
N38         N  0.30894883  0.49165087  0.93323037    -0.58260
N39         N  0.26905171  0.51522630  0.03840124    -0.05820
N40         N  0.27088205  0.53272292  0.06620806    -0.60390
N41         N  0.29201609  0.49187223  0.03821210    -0.05420
N42         N  0.30992189  0.49285682  0.06582092    -0.58240
N43         N  0.26833339  0.51459786  0.96031505    -0.05100
N44         N  0.26945799  0.53100750  0.93178718    -0.60740
C45         C  0.29513673  0.51651016  0.91520228     0.96030
C46         C  0.29663224  0.51857789  0.08302086     0.95810
N47         N  0.16516428  0.49749022  0.03777543    -0.06330
N48         N  0.14035488  0.51038190  0.05548971    -0.58840
N49         N  0.19051654  0.51747554  0.96230342    -0.04450
N50         N  0.18410458  0.54419419  0.94456858    -0.60090
N51         N  0.16429702  0.49734405  0.96310568    -0.06360
N52         N  0.13902695  0.51132812  0.94673619    -0.59110
N53         N  0.19087478  0.51824452  0.03776389    -0.04090
N54         N  0.18443338  0.54466234  0.05608431    -0.60180
Mn55       Mn  0.23006291  0.51702398  0.99969488     1.18440
C56         C  0.15314710  0.53947678  0.06739408     0.98120
C57         C  0.15224964  0.54015520  0.93464136     0.98780
N58         N  0.29022299  0.41497652  0.03793455    -0.06380
N59         N  0.30894629  0.41164985  0.06479660    -0.62690
N60         N  0.26510113  0.39300529  0.96124681    -0.05180
N61         N  0.26639467  0.37462487  0.93407111    -0.63360
N62         N  0.28948230  0.41498774  0.96160087    -0.05880
N63         N  0.30797685  0.41215369  0.93470453    -0.62950
N64         N  0.26611133  0.39273247  0.03769168    -0.04780
N65         N  0.26781955  0.37365429  0.06425001    -0.63640
Mn66       Mn  0.29216833  0.45345079  0.99978682     1.10660
C67         C  0.29474288  0.38559790  0.08085070     0.99340
C68         C  0.29342090  0.38677358  0.91787609     0.99420
N69         N  0.16182875  0.41396841  0.96370688    -0.05890
N70         N  0.13581977  0.40045098  0.94786080    -0.61260
N71         N  0.18875588  0.39392950  0.03836481    -0.05210
N72         N  0.18221395  0.36831186  0.05759434    -0.57990
N73         N  0.16379007  0.41538615  0.03854978    -0.06520
N74         N  0.13917214  0.40367702  0.05736042    -0.60830
N75         N  0.18726668  0.39303211  0.96288678    -0.05510
N76         N  0.17966932  0.36617559  0.94569774    -0.58020
Mn77       Mn  0.16264455  0.45607470  0.00068707     1.20190
Mn78       Mn  0.22700397  0.39277999  0.99994730     1.10090
Cl79       Cl  0.22767564  0.45487065  0.99999274    -0.85990
C80         C  0.14784917  0.37096970  0.93609260     0.96350
C81         C  0.15151375  0.37457281  0.06965799     0.96140
N82         N  0.63430627  0.42030044  0.96051563    -0.06140
N83         N  0.61618912  0.41998535  0.93311135    -0.58260
N84         N  0.65795185  0.39650387  0.03764478    -0.05820
N85         N  0.65706095  0.37967075  0.06587948    -0.60390
N86         N  0.63422609  0.41910731  0.03724541    -0.05420
N87         N  0.61645252  0.41801898  0.06480979    -0.58240
N88         N  0.65770091  0.39740353  0.95930910    -0.05100
N89         N  0.65595287  0.38091490  0.93079749    -0.60740
C90         C  0.62974633  0.39526456  0.91477487     0.96030
C91         C  0.63082222  0.39321248  0.08235074     0.95810
N92         N  0.76148796  0.41491978  0.03630075    -0.06330
N93         N  0.78677940  0.40154141  0.05312206    -0.58840
N94         N  0.73622348  0.39531477  0.96073734    -0.04450
N95         N  0.74354890  0.36915624  0.94237277    -0.60090
N96         N  0.76166098  0.41641459  0.96163950    -0.06360
N97         N  0.78715951  0.40394497  0.94455845    -0.59110
N98         N  0.73585573  0.39407651  0.03618641    -0.04090
N99         N  0.74269476  0.36725275  0.05365751    -0.60180
Mn100      Mn  0.69652986  0.39512368  0.99840138     1.18440
C101        C  0.77418241  0.37217257  0.06447463     0.98120
C102        C  0.77509327  0.37479667  0.93200602     0.98780
N103        N  0.63476088  0.49554358  0.03854153    -0.06380
N104        N  0.61584710  0.49749465  0.06524208    -0.62690
N105        N  0.65869485  0.51935740  0.96224698    -0.05180
N106        N  0.65686597  0.53789541  0.93522169    -0.63360
N107        N  0.63488270  0.49678333  0.96226217    -0.05880
N108        N  0.61620896  0.49937418  0.93539032    -0.62950
N109        N  0.65834218  0.51834915  0.03930494    -0.04780
N110        N  0.65595760  0.53652001  0.06664208    -0.63640
Mn111      Mn  0.63332099  0.45780705  0.99962772     1.10660
C112        C  0.62922572  0.52319339  0.08253556     0.99340
C113        C  0.63009652  0.52518123  0.91882754     0.99420
N114        N  0.76192250  0.49902341  0.96328328    -0.05890
N115        N  0.78728312  0.51196317  0.94629787    -0.61260
N116        N  0.73596690  0.51828862  0.03872194    -0.05210
N117        N  0.74253414  0.54413530  0.05765665    -0.57990
N118        N  0.76144123  0.49742160  0.03822429    -0.06520
N119        N  0.78641735  0.50990289  0.05626166    -0.60830
N120        N  0.73664065  0.52016549  0.96325397    -0.05510
N121        N  0.74384173  0.54679136  0.94557192    -0.58020
Mn122      Mn  0.76270056  0.45699914  0.99986291     1.20190
Mn123      Mn  0.69722969  0.51957974  0.00084369     1.10090
Cl124      Cl  0.69775688  0.45734198  0.99961983    -0.85990
C125        C  0.77512993  0.54136448  0.93462842     0.96350
C126        C  0.77378549  0.53879348  0.06879360     0.96140
C127        C  0.86415364  0.24605206  0.87974830     0.00540
C128        C  0.83859193  0.24941867  0.90270068     0.00540
C129        C  0.84162989  0.66263831  0.09621644     0.00540
C130        C  0.86468044  0.66406542  0.12206679     0.00540
N131        N  0.92657854  0.41257038  0.80141025    -0.06140
N132        N  0.91060206  0.39878713  0.82689287    -0.58260
N133        N  0.00211916  0.39425329  0.77495837    -0.05820
N134        N  0.02219055  0.36916937  0.78108830    -0.60390
N135        N  0.00172828  0.41530820  0.80015995    -0.05420
N136        N  0.02089838  0.40376213  0.82454348    -0.58240
N137        N  0.92621762  0.39170081  0.77592484    -0.05100
N138        N  0.90917235  0.36461937  0.78308987    -0.60740
C139        C  0.89927945  0.36919384  0.81463329     0.96030
C140        C  0.03407464  0.37529057  0.81177461     0.95810
N141        N  0.00211554  0.41632621  0.67484623    -0.06330
N142        N  0.02999557  0.41535683  0.65729393    -0.58840
N143        N  0.92473798  0.39100149  0.69813155    -0.04450
N144        N  0.89787942  0.37181668  0.69551393    -0.60090
N145        N  0.92501652  0.41335700  0.67440702    -0.06360
N146        N  0.89863697  0.41007101  0.65506068    -0.59110
N147        N  0.00269240  0.39365273  0.69830891    -0.04090
N148        N  0.03094985  0.37665280  0.69727911    -0.60180
Mn149      Mn  0.96375472  0.39207085  0.73661372     1.18440
C150        C  0.04772937  0.39034908  0.67146230     0.98120
C151        C  0.88199067  0.38397982  0.66826316     0.98780
N152        N  0.00002329  0.49699395  0.79983784    -0.06380
N153        N  0.01907258  0.50958800  0.82388741    -0.62690
N154        N  0.92313001  0.51593645  0.77577359    -0.05180
N155        N  0.90647852  0.54317085  0.78280059    -0.63360
N156        N  0.92487929  0.49615412  0.80193681    -0.05880
N157        N  0.91025457  0.51099371  0.82774248    -0.62950
N158        N  0.99899835  0.51790457  0.77456698    -0.04780
N159        N  0.01781644  0.54421130  0.78045019    -0.63640
Mn160      Mn  0.96315678  0.45517137  0.80208223     1.10660
C161        C  0.03051478  0.53880260  0.81102033     0.99340
C162        C  0.89834165  0.54015767  0.81503250     0.99420
N163        N  0.92145273  0.48965166  0.67514878    -0.05890
N164        N  0.89340834  0.48995812  0.65774663    -0.61260
N165        N  0.99806679  0.51573583  0.69756509    -0.05210
N166        N  0.02557662  0.53389486  0.69618648    -0.57990
N167        N  0.99824200  0.49275069  0.67437766    -0.06520
N168        N  0.02575408  0.49459215  0.65664649    -0.60830
N169        N  0.92078315  0.51258131  0.69846307    -0.05510
N170        N  0.89232151  0.52911273  0.69741813    -0.58020
Mn171      Mn  0.96172679  0.45307897  0.67346166     1.20190
Mn172      Mn  0.96013989  0.51604386  0.73621257     1.10090
Cl173      Cl  0.96195437  0.45408274  0.73767116    -0.85990
C174        C  0.87553902  0.51478338  0.67186032     0.96350
C175        C  0.04244674  0.52043385  0.67040415     0.96140
C176        C  0.08567231  0.24683440  0.89604470     0.00540
C177        C  0.06148520  0.24921368  0.87155652     0.00540
C178        C  0.83814373  0.66593901  0.90093435     0.00540
C179        C  0.86425424  0.66569421  0.87879801     0.00540
C180        C  0.06740788  0.66248362  0.87404425     0.00540
C181        C  0.09152487  0.66509016  0.89874487     0.00540
C182        C  0.85915569  0.24691990  0.12417869     0.00540
C183        C  0.83367935  0.24684772  0.10097904     0.00540
N184        N  0.92400844  0.49742595  0.19880858    -0.06140
N185        N  0.90695453  0.51026595  0.17356313    -0.58260
N186        N  0.99940589  0.51955737  0.22481648    -0.05820
N187        N  0.01675143  0.54663184  0.21810822    -0.60390
N188        N  0.99904500  0.49908887  0.19908363    -0.05420
N189        N  0.01542815  0.51298024  0.17392069    -0.58240
N190        N  0.92346213  0.51831129  0.22421036    -0.05100
N191        N  0.90522565  0.54462783  0.21717295    -0.60740
C192        C  0.89463319  0.53928489  0.18585094     0.96030
C193        C  0.02702086  0.54226638  0.18660935     0.95810
N194        N  0.99932940  0.49284916  0.32541294    -0.06330
N195        N  0.02685196  0.49338297  0.34350224    -0.58840
N196        N  0.92222967  0.51598513  0.30141049    -0.04450
N197        N  0.89384113  0.53273174  0.30236169    -0.60090
N198        N  0.92250689  0.49279062  0.32436160    -0.06360
N199        N  0.89449520  0.49305041  0.34143181    -0.59110
N200        N  0.00016135  0.51614110  0.30251350    -0.04090
N201        N  0.02843436  0.53320884  0.30462029    -0.60180
Mn202      Mn  0.96137115  0.51819703  0.26360172     1.18440
C203        C  0.04475008  0.51870327  0.33040934     0.98120
C204        C  0.87693259  0.51813411  0.32758036     0.98780
N205        N  0.00023975  0.41673010  0.19897153    -0.06380
N206        N  0.01826549  0.40454679  0.17415833    -0.62690
N207        N  0.92442428  0.39410078  0.22245530    -0.05180
N208        N  0.90660776  0.36747068  0.21549514    -0.63360
N209        N  0.92506133  0.41483234  0.19703326    -0.05880
N210        N  0.90839617  0.40141214  0.17160988    -0.62950
N211        N  0.00042218  0.39551416  0.22402486    -0.04780
N212        N  0.01938722  0.36969856  0.21733873    -0.63640
Mn213      Mn  0.96207301  0.45699147  0.19737228     1.10660
C214        C  0.03074725  0.37560153  0.18650225     0.99340
C215        C  0.89638860  0.37217279  0.18404654     0.99420
N216        N  0.92222004  0.41642340  0.32336280    -0.05890
N217        N  0.89554368  0.41307165  0.34222212    -0.61260
N218        N  0.99908842  0.39411751  0.30101167    -0.05210
N219        N  0.02515643  0.37434696  0.30443706    -0.57990
N220        N  0.99838029  0.41635088  0.32488083    -0.06520
N221        N  0.02383590  0.41237030  0.34527473    -0.60830
N222        N  0.92226924  0.39400899  0.29959256    -0.05510
N223        N  0.89554533  0.37474595  0.30168180    -0.58020
Mn224      Mn  0.96061468  0.45480325  0.32571771     1.20190
Mn225      Mn  0.96155113  0.39400253  0.26184776     1.10090
Cl226      Cl  0.96141522  0.45602926  0.26184894    -0.85990
C227        C  0.87920482  0.38689393  0.32851101     0.96350
C228        C  0.04015968  0.38597486  0.33231004     0.96140
N229        N  0.42140520  0.28241551  0.96250822    -0.06140
N230        N  0.42038989  0.29930798  0.93427077    -0.58260
N231        N  0.40039883  0.25679780  0.04029215    -0.05820
N232        N  0.38325009  0.25690398  0.06838406    -0.60390
N233        N  0.42352142  0.28010362  0.04085676    -0.05420
N234        N  0.42261363  0.29658907  0.06932658    -0.58240
N235        N  0.39876209  0.25860188  0.96210713    -0.05100
N236        N  0.38175294  0.25897781  0.93381849    -0.60740
C237        C  0.39536536  0.28461772  0.91663123     0.96030
C238        C  0.39726435  0.28196055  0.08629182     0.95810
N239        N  0.42132752  0.15478669  0.03589134    -0.06330
N240        N  0.40928626  0.12930499  0.05322094    -0.58840
N241        N  0.39876567  0.18071965  0.96155034    -0.04450
N242        N  0.37251002  0.17335009  0.94311190    -0.60090
N243        N  0.42060501  0.15606370  0.96108112    -0.06360
N244        N  0.40877333  0.13106120  0.94297176    -0.59110
N245        N  0.40004544  0.17983352  0.03714330    -0.04090
N246        N  0.37427063  0.17244611  0.05601759    -0.60180
Mn247      Mn  0.39877258  0.21942152  0.00018812     1.18440
C248        C  0.38024698  0.14115080  0.06626403     0.98120
C249        C  0.37914596  0.14268786  0.93127140     0.98780
N250        N  0.50161617  0.27995937  0.03870851    -0.06380
N251        N  0.50470164  0.29480453  0.06797017    -0.62690
N252        N  0.52099649  0.26017618  0.95864662    -0.05180
N253        N  0.53792039  0.26335637  0.93067304    -0.63360
N254        N  0.49834963  0.28369380  0.96121305    -0.05880
N255        N  0.49920278  0.30334260  0.93496152    -0.62950
N256        N  0.52530987  0.25761570  0.03511373    -0.04780
N257        N  0.54528991  0.25701285  0.06125382    -0.63640
Mn258      Mn  0.46109445  0.28307541  0.00113315     1.10660
C259        C  0.53239832  0.28045811  0.08139053     0.99340
C260        C  0.52411985  0.29051334  0.91619546     0.99420
N261        N  0.50279959  0.15602368  0.95963248    -0.05890
N262        N  0.51651519  0.13043156  0.94373741    -0.61260
N263        N  0.52491387  0.18154557  0.03336977    -0.05210
N264        N  0.55040813  0.17580892  0.05321307    -0.57990
N265        N  0.50312118  0.15687790  0.03458565    -0.06520
N266        N  0.51421331  0.13328933  0.05475869    -0.60830
N267        N  0.52297860  0.18205445  0.95780471    -0.05510
N268        N  0.54962060  0.17507070  0.93998196    -0.58020
Mn269      Mn  0.46198476  0.15480433  0.99781282     1.20190
Mn270      Mn  0.52402658  0.22064523  0.99580780     1.10090
Cl271      Cl  0.46141246  0.21907925  0.99859331    -0.85990
C272        C  0.54540294  0.14308154  0.93101632     0.96350
C273        C  0.54350814  0.14588845  0.06663088     0.96140
N274        N  0.42008347  0.91946550  0.67003373    -0.06140
N275        N  0.41690254  0.89221178  0.65201793    -0.58260
N276        N  0.40143933  0.99752294  0.69361397    -0.05820
N277        N  0.38466754  0.02571807  0.69150331    -0.60390
N278        N  0.42416535  0.99578016  0.67016398    -0.05420
N279        N  0.42338492  0.02261237  0.65138519    -0.58240
N280        N  0.39717888  0.92048595  0.69329682    -0.05100
N281        N  0.37782590  0.89384458  0.69175945    -0.60740
C282        C  0.39032272  0.87655209  0.66574752     0.96030
C283        C  0.39855944  0.04093316  0.66490291     0.95810
N284        N  0.41819562  0.99452028  0.79719385    -0.06330
N285        N  0.40363604  0.00938444  0.82298393    -0.58840
N286        N  0.39586666  0.92102235  0.76998769    -0.04450
N287        N  0.36919385  0.90269660  0.77521398    -0.60090
N288        N  0.41649340  0.91979746  0.79563128    -0.06360
N289        N  0.40316330  0.90101999  0.81938928    -0.59110
N290        N  0.39814422  0.99632435  0.77106818    -0.04090
N291        N  0.37093905  0.01326868  0.77815927    -0.60180
Mn292      Mn  0.39777785  0.95901680  0.73166190     1.18440
C293        C  0.37446033  0.02160767  0.81033390     0.98120
C294        C  0.37380630  0.89010001  0.80582115     0.98780
N295        N  0.50096267  0.99182772  0.67054412    -0.06380
N296        N  0.50371157  0.01904544  0.65251761    -0.62690
N297        N  0.51939124  0.91355651  0.69455714    -0.05180
N298        N  0.53553820  0.88484861  0.69305473    -0.63360
N299        N  0.49681395  0.91519465  0.67083136    -0.05880
N300        N  0.49705566  0.88788647  0.65261162    -0.62950
N301        N  0.52360993  0.99142586  0.69423664    -0.04780
N302        N  0.54237160  0.01857007  0.69289394    -0.63640
Mn303      Mn  0.46056288  0.95556613  0.66920781     1.10660
C304        C  0.52973912  0.03545681  0.66654669     0.99340
C305        C  0.52136979  0.86915536  0.66661898     0.99420
N306        N  0.49891803  0.91726688  0.79719341    -0.05890
N307        N  0.51107834  0.90034260  0.82282459    -0.61260
N308        N  0.52362981  0.99098206  0.77187067    -0.05210
N309        N  0.55061582  0.00861695  0.77860217    -0.57990
N310        N  0.50227469  0.99198134  0.79693546    -0.06520
N311        N  0.51553500  0.00958596  0.82173624    -0.60830
N312        N  0.52003009  0.91549313  0.77204880    -0.05510
N313        N  0.54579440  0.89662989  0.77963740    -0.58020
Mn314      Mn  0.45903009  0.95603485  0.79793672     1.20190
Mn315      Mn  0.52234200  0.95281822  0.73286327     1.10090
Cl316      Cl  0.46000857  0.95607797  0.73351435    -0.85990
C317        C  0.53992621  0.88695143  0.81106167     0.96350
C318        C  0.54537745  0.02041053  0.80944337     0.96140
C319        C  0.24733392  0.82267631  0.89008279     0.00540
C320        C  0.25093332  0.84983339  0.86895159     0.00540
C321        C  0.67092480  0.08130591  0.89621888     0.00540
C322        C  0.67074476  0.05844186  0.87054492     0.00540
C323        C  0.66399210  0.83081748  0.89903615     0.00540
C324        C  0.66481038  0.85642233  0.87558586     0.00540
N325        N  0.41461550  0.74762442  0.95730936    -0.06140
N326        N  0.39961294  0.77035136  0.93826516    -0.58260
N327        N  0.39574103  0.72602627  0.03432771    -0.05820
N328        N  0.36913076  0.73292114  0.05224822    -0.60390
N329        N  0.41576712  0.75221010  0.03232509    -0.05420
N330        N  0.40203756  0.77777501  0.04818490    -0.58240
N331        N  0.39521477  0.72102555  0.95902005    -0.05100
N332        N  0.36819869  0.72451008  0.94073699    -0.60740
C333        C  0.37095217  0.75499542  0.92748270     0.96030
C334        C  0.37333950  0.76495442  0.06111000     0.95810
N335        N  0.42259594  0.62534666  0.03890843    -0.06330
N336        N  0.42151806  0.60822427  0.06680458    -0.58840
N337        N  0.39874133  0.64491847  0.96170143    -0.04450
N338        N  0.38092603  0.64247635  0.93410645    -0.60090
N339        N  0.42263214  0.62255428  0.96210161    -0.06360
N340        N  0.42166461  0.60434415  0.93476628    -0.59110
N341        N  0.39940916  0.64842332  0.03869747    -0.04090
N342        N  0.38183887  0.64752857  0.06639964    -0.60180
Mn343      Mn  0.39688480  0.68481234  0.99870672     1.18440
C344        C  0.39587830  0.62221837  0.08362576     0.98120
C345        C  0.39535741  0.61691690  0.91759558     0.98780
N346        N  0.49953419  0.75572718  0.03229458    -0.06380
N347        N  0.51301403  0.78215679  0.04743512    -0.62690
N348        N  0.52061782  0.72615156  0.95956173    -0.05180
N349        N  0.54682189  0.73268620  0.94092569    -0.63360
N350        N  0.49844775  0.75046336  0.95766403    -0.05880
N351        N  0.51030839  0.77460874  0.93845081    -0.62950
N352        N  0.52034019  0.73029583  0.03491502    -0.04780
N353        N  0.54692847  0.73836989  0.05250983    -0.63640
Mn354      Mn  0.45700863  0.75288076  0.99474552     1.10660
C355        C  0.54232566  0.77048423  0.06053860     0.99340
C356        C  0.54019413  0.76266222  0.92755250     0.99420
N357        N  0.49982070  0.62534067  0.96278377    -0.05890
N358        N  0.50129012  0.60791235  0.93499769    -0.61260
N359        N  0.52063600  0.65260620  0.04061817    -0.05210
N360        N  0.53652722  0.65320587  0.06961371    -0.57990
N361        N  0.49892296  0.62800083  0.03987915    -0.06520
N362        N  0.49952859  0.61132814  0.06806511    -0.60830
N363        N  0.52220132  0.64931240  0.96260921    -0.05510
N364        N  0.53949375  0.64873393  0.93470289    -0.58020
Mn365      Mn  0.46113365  0.62401918  0.00076914     1.20190
Mn366      Mn  0.52153962  0.68922176  0.99966491     1.10090
Cl367      Cl  0.45916622  0.68840565  0.99851473    -0.85990
C368        C  0.52634227  0.62264844  0.91781110     0.96350
C369        C  0.52310327  0.62709894  0.08643575     0.96140
C370        C  0.25432366  0.85264884  0.12602560     0.00540
C371        C  0.25044479  0.82835852  0.10185871     0.00540
C372        C  0.25290869  0.08373322  0.89923977     0.00540
C373        C  0.25032053  0.05897531  0.87539922     0.00540
C374        C  0.67002699  0.85522950  0.12185968     0.00540
C375        C  0.66929406  0.83017574  0.09840235     0.00540
N376        N  0.42067450  0.91559931  0.19979878    -0.06140
N377        N  0.40904495  0.89686487  0.17508105    -0.58260
N378        N  0.39639306  0.99047989  0.22447776    -0.05820
N379        N  0.36890306  0.00686770  0.21687416    -0.60390
N380        N  0.41748839  0.99044737  0.19924286    -0.05420
N381        N  0.40365640  0.00612452  0.17354672    -0.58240
N382        N  0.39935616  0.91497805  0.22478817    -0.05100
N383        N  0.37396749  0.89521396  0.21817857    -0.60740
C384        C  0.38016368  0.88377057  0.18738745     0.96030
C385        C  0.37359735  0.01680425  0.18529878     0.95810
N386        N  0.42029713  0.99086565  0.32610208    -0.06330
N387        N  0.41791423  0.01772477  0.34472222    -0.58840
N388        N  0.39956920  0.91372686  0.30148694    -0.04450
N389        N  0.38275393  0.88534765  0.30153369    -0.60090
N390        N  0.42261154  0.91374587  0.32486047    -0.06360
N391        N  0.42215081  0.88523183  0.34121036    -0.59110
N392        N  0.39776187  0.99130014  0.30226912    -0.04090
N393        N  0.37952111  0.01868333  0.30406776    -0.60180
Mn394      Mn  0.39771642  0.95279858  0.26359079     1.18440
C395        C  0.39233246  0.03479838  0.33086134     0.98120
C396        C  0.39700403  0.86785469  0.32652417     0.98780
N397        N  0.50051519  0.99336803  0.20083267    -0.06380
N398        N  0.51298526  0.01085195  0.17577448    -0.62690
N399        N  0.52443973  0.91862894  0.22527249    -0.05180
N400        N  0.55161479  0.90162026  0.21803905    -0.63360
N401        N  0.50335255  0.91865363  0.19990732    -0.05880
N402        N  0.51682135  0.90234453  0.17450968    -0.62950
N403        N  0.52165363  0.99416577  0.22614846    -0.04780
N404        N  0.54773163  0.01295120  0.21926785    -0.63640
Mn405      Mn  0.46052880  0.95455464  0.19894188     1.10660
C406        C  0.54206522  0.02356786  0.18808131     0.99340
C407        C  0.54655639  0.89116477  0.18663236     0.99420
N408        N  0.49965373  0.91649302  0.32618471    -0.05890
N409        N  0.50101208  0.88857828  0.34336576    -0.61260
N410        N  0.52034799  0.99484591  0.30321657    -0.05210
N411        N  0.53653331  0.02357813  0.30359667    -0.57990
N412        N  0.49733050  0.99426681  0.32647233    -0.06520
N413        N  0.49733611  0.02271772  0.34314227    -0.60830
N414        N  0.52262998  0.91671647  0.30290702    -0.05510
N415        N  0.54020915  0.88882131  0.30379982    -0.58020
Mn416      Mn  0.46000960  0.95382609  0.32735270     1.20190
Mn417      Mn  0.52288630  0.95601338  0.26478477     1.10090
Cl418      Cl  0.46029602  0.95434517  0.26339130    -0.85990
C419        C  0.52651688  0.87155807  0.32936329     0.96350
C420        C  0.52209287  0.04075834  0.32869909     0.96140
N421        N  0.28699819  0.91780319  0.46109756    -0.06140
N422        N  0.30635907  0.89148048  0.45789175    -0.58260
N423        N  0.26254535  0.99505615  0.44046502    -0.05820
N424        N  0.26421370  0.02285570  0.42300705    -0.60390
N425        N  0.28615996  0.99448821  0.46325831    -0.05420
N426        N  0.30433245  0.02193320  0.46199134    -0.58240
N427        N  0.26328383  0.91764920  0.43843653    -0.05100
N428        N  0.26575561  0.89094023  0.41935429    -0.60740
C429        C  0.29291168  0.87501045  0.43171205     0.96030
C430        C  0.29049965  0.03932395  0.43664704     0.95810
N431        N  0.15867797  0.99166665  0.45946192    -0.06330
N432        N  0.13251770  0.00750416  0.44666219    -0.58840
N433        N  0.18558135  0.91756009  0.43719400    -0.04450
N434        N  0.17935008  0.90030942  0.41007553    -0.60090
N435        N  0.15966114  0.91709164  0.45757155    -0.06360
N436        N  0.13464947  0.90038343  0.44321593    -0.59110
N437        N  0.18399931  0.99306747  0.43844059    -0.04090
N438        N  0.17583672  0.01058463  0.41194731    -0.60180
Mn439      Mn  0.22419151  0.95593018  0.43820820     1.18440
C440        C  0.14395942  0.01990735  0.41740177     0.98120
C441        C  0.14787407  0.88932767  0.41398045     0.98780
N442        N  0.28654567  0.99289399  0.53959959    -0.06380
N443        N  0.30363875  0.02104357  0.54077297    -0.62690
N444        N  0.26287488  0.91463878  0.56069028    -0.05180
N445        N  0.26313955  0.88619459  0.57716926    -0.63360
N446        N  0.28627472  0.91482056  0.53781056    -0.05880
N447        N  0.30288466  0.88634231  0.53811136    -0.62950
N448        N  0.26306688  0.99272776  0.56234581    -0.04780
N449        N  0.26380602  0.02074165  0.57973082    -0.63640
Mn450      Mn  0.28778885  0.95493420  0.50056984     1.10660
C451        C  0.28942276  0.03811462  0.56608118     0.99340
C452        C  0.28828490  0.86875519  0.56294640     0.99420
N453        N  0.15931988  0.91625759  0.54166995    -0.05890
N454        N  0.13385493  0.89988202  0.55543722    -0.61260
N455        N  0.18531933  0.99136806  0.56249394    -0.05210
N456        N  0.17935555  0.01090932  0.58802089    -0.57990
N457        N  0.15982449  0.99134417  0.54150681    -0.06520
N458        N  0.13552783  0.01047488  0.55339932    -0.60830
N459        N  0.18518223  0.91579077  0.56224666    -0.05510
N460        N  0.17835269  0.89826307  0.58899521    -0.58020
Mn461      Mn  0.15820367  0.95387349  0.50011511     1.20190
Mn462      Mn  0.22451347  0.95363022  0.56246831     1.10090
Cl463      Cl  0.22307505  0.95445872  0.50029449    -0.85990
C464        C  0.14657298  0.88811081  0.58464451     0.96350
C465        C  0.14854669  0.02305538  0.58214499     0.96140
N466        N  0.99997840  0.28257267  0.46172029    -0.06140
N467        N  0.02883230  0.29871055  0.46220047    -0.58260
N468        N  0.92174524  0.25986227  0.43719112    -0.05820
N469        N  0.89347125  0.26053676  0.42003568    -0.60390
N470        N  0.92187999  0.28336967  0.45987540    -0.05420
N471        N  0.89375373  0.30051343  0.45876956    -0.58240
N472        N  0.00028513  0.25918980  0.43881968    -0.05100
N473        N  0.02931850  0.25904392  0.42311282    -0.60740
C474        C  0.04687800  0.28390629  0.43789608     0.96030
C475        C  0.87629320  0.28617109  0.43367957     0.95810
N476        N  0.92181384  0.15733722  0.45747241    -0.06330
N477        N  0.90300571  0.13286946  0.44529078    -0.58840
N478        N  0.99785292  0.18163384  0.43616962    -0.04450
N479        N  0.01406343  0.17395928  0.40879136    -0.60090
N480        N  0.99696660  0.15601300  0.45675562    -0.06360
N481        N  0.01175088  0.13000363  0.44248953    -0.59110
N482        N  0.92202262  0.18256891  0.43643497    -0.04090
N483        N  0.90287401  0.17622804  0.41055788    -0.60180
Mn484      Mn  0.96053690  0.22123680  0.43657917     1.18440
C485        C  0.89086122  0.14542089  0.41624894     0.98120
C486        C  0.02292971  0.14194057  0.41281699     0.98780
N487        N  0.92015650  0.28256969  0.53611155    -0.06380
N488        N  0.89210390  0.29984311  0.53705936    -0.62690
N489        N  0.99717326  0.25973036  0.56080045    -0.05180
N490        N  0.02393622  0.26194675  0.58000669    -0.63360
N491        N  0.99734297  0.28333397  0.53827445    -0.05880
N492        N  0.02417828  0.30221564  0.54155418    -0.62950
N493        N  0.91978067  0.25895958  0.55869392    -0.04780
N494        N  0.89158719  0.25969427  0.57564777    -0.63640
Mn495      Mn  0.95989508  0.28440585  0.49886027     1.10660
C496        C  0.87462027  0.28538686  0.56198308     0.99340
C497        C  0.04043617  0.28873202  0.56781892     0.99420
N498        N  0.99710087  0.15685233  0.54033135    -0.05890
N499        N  0.01398610  0.13183445  0.55401325    -0.61260
N500        N  0.92109609  0.18150894  0.56034200    -0.05210
N501        N  0.90338072  0.17393692  0.58683209    -0.57990
N502        N  0.92203041  0.15618161  0.53942197    -0.06520
N503        N  0.90571878  0.13044624  0.55237117    -0.60830
N504        N  0.99708020  0.18243886  0.56104328    -0.05510
N505        N  0.01478662  0.17593064  0.58784037    -0.58020
Mn506      Mn  0.95963801  0.15557060  0.49848717     1.20190
Mn507      Mn  0.95876988  0.22094065  0.56065295     1.10090
Cl508      Cl  0.95982339  0.22023801  0.49864163    -0.85990
C509        C  0.02563102  0.14466752  0.58323277     0.96350
C510        C  0.89350637  0.14231880  0.58158201     0.96140
C511        C  0.85964607  0.08069406  0.29239718     0.00540
C512        C  0.83473865  0.05663985  0.28933836     0.00540
N513        N  0.63502680  0.99372051  0.45841520    -0.06140
N514        N  0.61594309  0.02030559  0.45554488    -0.58260
N515        N  0.65957244  0.91709283  0.43621474    -0.05820
N516        N  0.65764553  0.89031269  0.41730969    -0.60390
N517        N  0.63533602  0.91735423  0.45818775    -0.05420
N518        N  0.61629065  0.89074189  0.45481461    -0.58240
N519        N  0.65902240  0.99409757  0.43618594    -0.05100
N520        N  0.65673709  0.02109054  0.41751410    -0.60740
C521        C  0.62961362  0.03711942  0.42982409     0.96030
C522        C  0.63043801  0.87420537  0.42913671     0.95810
N523        N  0.76322693  0.91789854  0.45787274    -0.06330
N524        N  0.78941761  0.90218899  0.44475884    -0.58840
N525        N  0.73677995  0.99323260  0.43688000    -0.04450
N526        N  0.74364624  0.01090467  0.41029841    -0.60090
N527        N  0.76249696  0.99251302  0.45755572    -0.06360
N528        N  0.78802785  0.00893400  0.44404455    -0.59110
N529        N  0.73820712  0.91766319  0.43621657    -0.04090
N530        N  0.74648233  0.90090957  0.40924295    -0.60180
Mn531      Mn  0.69814322  0.95544051  0.43605556     1.18440
C532        C  0.77823712  0.89102516  0.41466122     0.98120
C533        C  0.77533879  0.02094848  0.41493147     0.98780
N534        N  0.63355092  0.91694488  0.53481147    -0.06380
N535        N  0.61576623  0.88924722  0.53527175    -0.62690
N536        N  0.65647705  0.99466144  0.55801683    -0.05180
N537        N  0.65512855  0.02272817  0.57518696    -0.63360
N538        N  0.63340513  0.99443570  0.53471706    -0.05880
N539        N  0.61591722  0.02233359  0.53539498    -0.62950
N540        N  0.65651701  0.91651664  0.55825082    -0.04780
N541        N  0.65474793  0.88841527  0.57533377    -0.63640
Mn542      Mn  0.63307752  0.95556310  0.49662900     1.10660
C543        C  0.62908293  0.87168903  0.56071747     0.99340
C544        C  0.62959967  0.03974628  0.56091293     0.99420
N545        N  0.75985512  0.99359391  0.53999370    -0.05890
N546        N  0.78452550  0.01174977  0.55277152    -0.61260
N547        N  0.73499772  0.91836182  0.56263629    -0.05210
N548        N  0.74167299  0.90219627  0.59039070    -0.57990
N549        N  0.76136125  0.91883853  0.54276855    -0.06520
N550        N  0.78686287  0.90380052  0.55806347    -0.60830
N551        N  0.73410012  0.99378858  0.56051566    -0.05510
N552        N  0.74033161  0.01261582  0.58656870    -0.58020
Mn553      Mn  0.76275890  0.95547525  0.49963184     1.20190
Mn554      Mn  0.69515362  0.95570268  0.56033529     1.10090
Cl555      Cl  0.69763220  0.95529054  0.49816765    -0.85990
C556        C  0.77162622  0.02392371  0.58158296     0.96350
C557        C  0.77379480  0.89280242  0.58742880     0.96140
C558        C  0.83676919  0.85402164  0.71294251     0.00540
C559        C  0.86119326  0.82967566  0.71092210     0.00540
N560        N  0.91977221  0.65325454  0.53613732    -0.06140
N561        N  0.90797225  0.62880869  0.55499738    -0.58260
N562        N  0.89986715  0.67748434  0.45988258    -0.05820
N563        N  0.87329670  0.67023634  0.44188165    -0.60390
N564        N  0.92059609  0.65190778  0.46131992    -0.05420
N565        N  0.90710017  0.62623187  0.44504647    -0.58240
N566        N  0.89809939  0.67806614  0.53537885    -0.05100
N567        N  0.87209457  0.67143796  0.55431277    -0.60740
C568        C  0.87861053  0.64101428  0.56682214     0.96030
C569        C  0.87789679  0.63849137  0.43239168     0.95810
N570        N  0.92451399  0.77884701  0.45928146    -0.06330
N571        N  0.92474485  0.79680096  0.43194663    -0.58840
N572        N  0.89831787  0.75610062  0.53545871    -0.04450
N573        N  0.87927368  0.75876769  0.56220580    -0.60090
N574        N  0.92106505  0.77972268  0.53526122    -0.06360
N575        N  0.91808613  0.79906114  0.56146385    -0.59110
N576        N  0.90161139  0.75535878  0.45758972    -0.04090
N577        N  0.88566467  0.75688797  0.42868644    -0.60180
Mn578      Mn  0.89877003  0.71700713  0.49704769     1.18440
C579        C  0.90040767  0.78303911  0.41304039     0.98120
C580        C  0.89185307  0.78596347  0.57798656     0.98780
N581        N  0.00472953  0.65327707  0.46370948    -0.06380
N582        N  0.01884043  0.62830855  0.44713013    -0.62690
N583        N  0.02307672  0.67931276  0.53957170    -0.05180
N584        N  0.04901206  0.67313617  0.55878368    -0.63360
N585        N  0.00252377  0.65353889  0.53854811    -0.05880
N586        N  0.01529291  0.62881854  0.55653333    -0.62950
N587        N  0.02539289  0.67904174  0.46418017    -0.04780
N588        N  0.05267405  0.67263397  0.44717555    -0.63640
Mn589      Mn  0.96189897  0.65185575  0.49979363     1.10660
C590        C  0.04845345  0.64123277  0.43633007     0.99340
C591        C  0.04400877  0.64185583  0.56961465     0.99420
N592        N  0.99770667  0.77980699  0.53941763    -0.05890
N593        N  0.99782256  0.79763850  0.56697531    -0.61260
N594        N  0.02403779  0.75661683  0.46319185    -0.05210
N595        N  0.04312039  0.75878465  0.43648742    -0.57990
N596        N  0.00114305  0.77997835  0.46286463    -0.06520
N597        N  0.00402441  0.79863961  0.43611457    -0.60830
N598        N  0.02083198  0.75665443  0.54061248    -0.05510
N599        N  0.03734168  0.75825415  0.56908400    -0.58020
Mn600      Mn  0.96107751  0.78071579  0.49921899     1.20190
Mn601      Mn  0.02383520  0.71817464  0.50186128     1.10090
Cl602      Cl  0.96136331  0.71660415  0.49940587    -0.85990
C603        C  0.02274263  0.78402368  0.58523741     0.96350
C604        C  0.03038329  0.78527990  0.41992675     0.96140
C605        C  0.84357320  0.86251225  0.28874347     0.00540
C606        C  0.86830295  0.83860304  0.28506703     0.00540
C607        C  0.08646473  0.85641557  0.71146651     0.00540
C608        C  0.06250503  0.83201264  0.71425674     0.00540
C609        C  0.86392202  0.07656462  0.70580399     0.00540
C610        C  0.83864330  0.05272825  0.70541351     0.00540
C611        C  0.06592964  0.82824967  0.28774068     0.00540
C612        C  0.09051582  0.85277390  0.28675210     0.00540
C613        C  0.05299894  0.07094408  0.29066106     0.00540
C614        C  0.07799901  0.04721102  0.29263634     0.00540
C615        C  0.08546594  0.05899517  0.70537302     0.00540
C616        C  0.06174248  0.08403093  0.70825566     0.00540
C617        C  0.33134279  0.73846237  0.60631509     0.00540
C618        C  0.35607041  0.74185256  0.63008525     0.00540
C619        C  0.17564707  0.32446398  0.60295381     0.00540
C620        C  0.17862520  0.34840850  0.62758053     0.00540
C621        C  0.74623843  0.34982839  0.36896290     0.00540
C622        C  0.74355647  0.32631199  0.39393698     0.00540
C623        C  0.33768829  0.17028089  0.39972649     0.00540
C624        C  0.36190674  0.16818155  0.37521103     0.00540
C625        C  0.33901290  0.74251850  0.40114445     0.00540
C626        C  0.36075807  0.73801707  0.37488507     0.00540
C627        C  0.17740212  0.33002240  0.39892481     0.00540
C628        C  0.17276947  0.35360058  0.37467786     0.00540
C629        C  0.33372968  0.17142112  0.59781838     0.00540
C630        C  0.36093370  0.17065400  0.61849504     0.00540
C631        C  0.74371279  0.33004707  0.60162723     0.00540
C632        C  0.74709091  0.35345797  0.62685555     0.00540
C633        C  0.25169863  0.05432584  0.11634684     0.00540
C634        C  0.25308444  0.08112782  0.09493997     0.00540
C635        C  0.66511975  0.07825014  0.09886607     0.00540
C636        C  0.66676964  0.05440900  0.12369637     0.00540
C637        C  0.35577501  0.32521141  0.78357310     0.00540
C638        C  0.33154486  0.34983656  0.78506319     0.00540
C639        C  0.55446208  0.33914196  0.78461961     0.00540
C640        C  0.57814631  0.36404612  0.78392079     0.00540
C641        C  0.58926939  0.74144236  0.39404070     0.00540
C642        C  0.56405261  0.73890446  0.37045625     0.00540
C643        C  0.56224557  0.17267507  0.37097735     0.00540
C644        C  0.58778595  0.17007864  0.39405462     0.00540
C645        C  0.58708374  0.55925373  0.78649535     0.00540
C646        C  0.56167846  0.58263365  0.78492872     0.00540
C647        C  0.08974330  0.66424093  0.09929406     0.00540
C648        C  0.06449578  0.66588744  0.12287139     0.00540
C649        C  0.05876310  0.25029064  0.12412109     0.00540
C650        C  0.08316742  0.25174875  0.09961157     0.00540
C651        C  0.33829924  0.55243016  0.78295455     0.00540
C652        C  0.36045162  0.57863387  0.78362711     0.00540
C653        C  0.17422390  0.57879461  0.40315757     0.00540
C654        C  0.17550716  0.55538139  0.37852547     0.00540
C655        C  0.75093162  0.57660987  0.39975338     0.00540
C656        C  0.74751385  0.55228022  0.37612752     0.00540
C657        C  0.74759409  0.56016114  0.62587124     0.00540
C658        C  0.75197025  0.58572405  0.60341690     0.00540
C659        C  0.58446908  0.17111232  0.60032126     0.00540
C660        C  0.56323233  0.16973482  0.62736304     0.00540
C661        C  0.58326263  0.73987261  0.59568703     0.00540
C662        C  0.55673249  0.73927595  0.61680148     0.00540
C663        C  0.17030847  0.57969233  0.60228529     0.00540
C664        C  0.17356578  0.55512331  0.62625126     0.00540
C665        C  0.96379018  0.75490121  0.82708957     0.00540
C666        C  0.96468150  0.77966674  0.80322922     0.00540
C667        C  0.78310772  0.95272022  0.79810493     0.00540
C668        C  0.75989348  0.95571192  0.82361072     0.00540
C669        C  0.78259114  0.75373472  0.99667909     0.00540
C670        C  0.75737817  0.77716962  0.99951863     0.00540
C671        C  0.46116327  0.64849957  0.66807160     0.00540
C672        C  0.46032961  0.62361886  0.69148150     0.00540
C673        C  0.63347118  0.45821905  0.69323851     0.00540
C674        C  0.65639432  0.45944266  0.66796622     0.00540
C675        C  0.63680296  0.65187766  0.49849885     0.00540
C676        C  0.66216106  0.62901097  0.49872255     0.00540
C677        C  0.59088612  0.34840987  0.21252458     0.00540
C678        C  0.56863269  0.32224171  0.21270246     0.00540
C679        C  0.55955365  0.58101473  0.21758530     0.00540
C680        C  0.58599129  0.55919601  0.21482292     0.00540
C681        C  0.33815704  0.55706633  0.21580022     0.00540
C682        C  0.36127341  0.58271913  0.21656393     0.00540
C683        C  0.32606756  0.34660727  0.21485825     0.00540
C684        C  0.35182356  0.32370526  0.21679167     0.00540
C685        C  0.50885471  0.70067084  0.60682442    -0.21330
C686        C  0.53791712  0.70858083  0.62470168    -0.09370
C687        C  0.54618377  0.68987997  0.65278312     0.29490
C688        C  0.52379624  0.66598136  0.66479357    -0.21330
C689        C  0.49211326  0.66089333  0.64965154    -0.09380
C690        C  0.48703661  0.67600720  0.61822000     0.29490
F691        F  0.45889799  0.66962458  0.60020558    -0.19910
H692        H  0.50209585  0.71478037  0.58484497     0.17860
H693        H  0.53180879  0.65343490  0.68692614     0.17860
F694        F  0.57467768  0.69660403  0.67012389    -0.19900
C695        C  0.57445629  0.69308543  0.55515316    -0.21330
C696        C  0.59546624  0.71006750  0.57757878    -0.09370
C697        C  0.62986679  0.70313619  0.57755404     0.29490
C698        C  0.64330361  0.68191396  0.55365345    -0.21330
C699        C  0.62254623  0.66586890  0.53008711    -0.09380
C700        C  0.58771817  0.67059120  0.53218076     0.29490
F701        F  0.56688637  0.65618926  0.50955612    -0.19910
H702        H  0.54823368  0.69924603  0.55327924     0.17860
H703        H  0.67022510  0.68116623  0.55169441     0.17860
F704        F  0.65097579  0.71942091  0.59859159    -0.19900
C705        C  0.69090536  0.59281538  0.58169994    -0.21330
C706        C  0.72529704  0.60191705  0.58147478    -0.09370
C707        C  0.73496664  0.62621647  0.55751054     0.29490
C708        C  0.71359654  0.63519656  0.53185219    -0.21330
C709        C  0.68123923  0.62226926  0.52984085    -0.09380
C710        C  0.66925689  0.60227014  0.55575834     0.29490
F711        F  0.63729657  0.59064629  0.55514310    -0.19910
H712        H  0.67997762  0.57840288  0.60131640     0.17860
H713        H  0.72258826  0.65217895  0.51287783     0.17860
F714        F  0.76519094  0.64171145  0.55788408    -0.19900
C715        C  0.70275222  0.51897224  0.61116563    -0.21330
C716        C  0.71627483  0.54200065  0.63390669    -0.09370
C717        C  0.70598038  0.54066017  0.66723557     0.29490
C718        C  0.68533908  0.51494226  0.67820112    -0.21330
C719        C  0.67161082  0.49159742  0.65574036    -0.09380
C720        C  0.67978490  0.49472828  0.62172669     0.29490
F721        F  0.66821481  0.47210525  0.59928875    -0.19910
H722        H  0.71128708  0.51878812  0.58559973     0.17860
H723        H  0.68269420  0.51205926  0.70475874     0.17860
F724        F  0.71872372  0.56220530  0.69004507    -0.19900
C725        C  0.71473511  0.57000900  0.44891169    -0.21330
C726        C  0.72296371  0.58828568  0.42058964    -0.09370
C727        C  0.70918193  0.62017173  0.41635542     0.29490
C728        C  0.68839736  0.63365835  0.44092151    -0.21330
C729        C  0.67831743  0.61427669  0.46844413    -0.09380
C730        C  0.69066585  0.58143778  0.47094561     0.29490
F731        F  0.68193229  0.56134451  0.49668358    -0.19910
H732        H  0.72802777  0.54732126  0.45488428     0.17860
H733        H  0.68223478  0.65974337  0.43901302     0.17860
F734        F  0.71781930  0.63924976  0.38987204    -0.19900
C735        C  0.39446954  0.56992431  0.73098399    -0.21330
C736        C  0.37989142  0.59157666  0.75437355    -0.09370
C737        C  0.38877962  0.62568574  0.75293280     0.29490
C738        C  0.41370030  0.63664842  0.73111914    -0.21330
C739        C  0.42871785  0.61438014  0.70874252    -0.09380
C740        C  0.41727800  0.58144096  0.70751747     0.29490
F741        F  0.42961398  0.55969738  0.68485125    -0.19910
H742        H  0.39078074  0.54357029  0.73179876     0.17860
H743        H  0.42230282  0.66223160  0.73269187     0.17860
F744        F  0.37496974  0.64821109  0.77400301    -0.19900
C745        C  0.61951537  0.50840720  0.77009816    -0.21330
C746        C  0.60181150  0.53710358  0.75946145    -0.09370
C747        C  0.60063671  0.54286324  0.72466509     0.29490
C748        C  0.61055800  0.51756950  0.70220173    -0.21330
C749        C  0.62561613  0.48814127  0.71413387    -0.09380
C750        C  0.63218339  0.48541659  0.74814883     0.29490
F751        F  0.64986802  0.45933534  0.76064984    -0.19910
H752        H  0.62401795  0.50255861  0.79592364     0.17860
H753        H  0.60705069  0.52113824  0.67572358     0.17860
F754        F  0.59168672  0.57290279  0.71217443    -0.19900
C755        C  0.52685992  0.57002103  0.73321866    -0.21330
C756        C  0.54087666  0.59306725  0.75578006    -0.09370
C757        C  0.52898921  0.62623652  0.75510713     0.29490
C758        C  0.50218640  0.63498193  0.73495142    -0.21330
C759        C  0.49037516  0.61306821  0.71048213    -0.09380
C760        C  0.50336949  0.58046697  0.70930368     0.29490
F761        F  0.49287426  0.55851490  0.68583469    -0.19910
H762        H  0.53376372  0.54398026  0.73423117     0.17860
H763        H  0.49182931  0.65986714  0.73696824     0.17860
F764        F  0.54210885  0.65012456  0.77528103    -0.19900
C765        C  0.62180991  0.72688703  0.44558728    -0.21330
C766        C  0.60401739  0.71513849  0.41731750    -0.09370
C767        C  0.60267782  0.68000286  0.41310739     0.29490
C768        C  0.61275182  0.65853952  0.43929889    -0.21330
C769        C  0.62774168  0.67169650  0.46831327    -0.09380
C770        C  0.63411474  0.70589537  0.46970259     0.29490
F771        F  0.65212778  0.71958788  0.49500308    -0.19910
H772        H  0.62679424  0.75292928  0.45017778     0.17860
H773        H  0.60954758  0.63186117  0.43668242     0.17860
F774        F  0.59339917  0.66619522  0.38370669    -0.19900
C775        C  0.62163635  0.37651353  0.74145378    -0.21330
C776        C  0.58926912  0.38207414  0.75370290    -0.09370
C777        C  0.57220024  0.41070755  0.74311820     0.29490
C778        C  0.58452082  0.42981629  0.71710410    -0.21330
C779        C  0.61805852  0.42673567  0.70699601    -0.09380
C780        C  0.63685135  0.39975193  0.72020729     0.29490
F781        F  0.67060142  0.39824839  0.71740318    -0.19910
H782        H  0.63664397  0.35650933  0.75172352     0.17860
H783        H  0.56983296  0.45107649  0.70914181     0.17860
F784        F  0.54492354  0.42212654  0.75966267    -0.19900
C785        C  0.68618627  0.37346433  0.63740337    -0.21330
C786        C  0.72125024  0.37745401  0.64100700    -0.09370
C787        C  0.73231166  0.40640795  0.65859459     0.29490
C788        C  0.71043061  0.43144632  0.66697550    -0.21330
C789        C  0.67654882  0.42957352  0.65895056    -0.09380
C790        C  0.66404475  0.39990033  0.64480056     0.29490
F791        F  0.63082664  0.39639304  0.63842472    -0.19910
H792        H  0.67570052  0.35022378  0.62873006     0.17860
H793        H  0.72039827  0.45295380  0.68006884     0.17860
F794        F  0.76437771  0.41180650  0.66850852    -0.19900
C795        C  0.40984873  0.72627407  0.65884157    -0.21330
C796        C  0.37958006  0.71531648  0.64382356    -0.09370
C797        C  0.37386278  0.68038597  0.64321239     0.29490
C798        C  0.39991885  0.65808946  0.65130035    -0.21330
C799        C  0.43087228  0.67009188  0.66321695    -0.09380
C800        C  0.43443118  0.70426736  0.66904742     0.29490
F801        F  0.46273732  0.71672844  0.68331701    -0.19910
H802        H  0.41566427  0.75231747  0.66252106     0.17860
H803        H  0.39595117  0.63155974  0.64821868     0.17860
F804        F  0.34323660  0.66739918  0.63652201    -0.19900
C805        C  0.81769119  0.99692563  0.72197613    -0.21330
C806        C  0.82673618  0.02913060  0.73254263    -0.09370
C807        C  0.81913463  0.03763161  0.76594087     0.29490
C808        C  0.80574435  0.01326790  0.78808289    -0.21330
C809        C  0.79575477  0.98136235  0.77635522    -0.09380
C810        C  0.80040994  0.97497075  0.74213867     0.29490
F811        F  0.78799206  0.94721464  0.72723933    -0.19910
H812        H  0.82233878  0.98866646  0.69679528     0.17860
H813        H  0.80273647  0.01962763  0.81406467     0.17860
F814        F  0.82427417  0.06913312  0.77715242    -0.19900
C815        C  0.02053831  0.84147699  0.75978502    -0.21330
C816        C  0.04551390  0.82143503  0.74568593    -0.09370
C817        C  0.04705944  0.78777749  0.75551211     0.29490
C818        C  0.02245779  0.77413675  0.77635170    -0.21330
C819        C  0.99695847  0.79424885  0.78994141    -0.09380
C820        C  0.99779289  0.82863784  0.78284426     0.29490
F821        F  0.97359776  0.84913963  0.79479663    -0.19910
H822        H  0.01583436  0.86608966  0.75054194     0.17860
H823        H  0.02189474  0.74736356  0.77907767     0.17860
F824        F  0.07019912  0.76710704  0.74202994    -0.19900
C825        C  0.08599670  0.59122640  0.43738637    -0.21330
C826        C  0.07753305  0.62232605  0.42373819    -0.09370
C827        C  0.10101021  0.63884951  0.40349526     0.29490
C828        C  0.13253994  0.62501252  0.39775026    -0.21330
C829        C  0.14143243  0.59441566  0.41201511    -0.09380
C830        C  0.11777228  0.57737723  0.43166548     0.29490
F831        F  0.12559490  0.54756558  0.44556129    -0.19910
H832        H  0.06872345  0.57850283  0.45380955     0.17860
H833        H  0.14988567  0.63804961  0.38168946     0.17860
F834        F  0.09365772  0.66892514  0.38984116    -0.19900
C835        C  0.83829375  0.59394257  0.56420417    -0.21330
C836        C  0.85162058  0.62113648  0.58189611    -0.09370
C837        C  0.83351417  0.63450209  0.60869497     0.29490
C838        C  0.80174765  0.62205433  0.61650992    -0.21330
C839        C  0.78750010  0.59630878  0.59746934    -0.09380
C840        C  0.80632335  0.58168484  0.57177564     0.29490
F841        F  0.79279509  0.55711325  0.55270912    -0.19910
H842        H  0.85140699  0.58404517  0.54280025     0.17860
H843        H  0.78750315  0.63358920  0.63629034     0.17860
F844        F  0.84574501  0.66100683  0.62593887    -0.19900
C845        C  0.07977408  0.59079704  0.57201788    -0.21330
C846        C  0.07228071  0.62278853  0.58399377    -0.09370
C847        C  0.09626974  0.63958536  0.60372643     0.29490
C848        C  0.12763947  0.62533800  0.60995231    -0.21330
C849        C  0.13568565  0.59403323  0.59680932    -0.09380
C850        C  0.11130241  0.57662523  0.57805713     0.29490
F851        F  0.11882647  0.54685139  0.56390113    -0.19910
H852        H  0.06222795  0.57782808  0.55594378     0.17860
H853        H  0.14598754  0.63898895  0.62450319     0.17860
F854        F  0.08990584  0.67059584  0.61569824    -0.19900
C855        C  0.83964183  0.58868787  0.43430737    -0.21330
C856        C  0.84910475  0.61894044  0.41937938    -0.09370
C857        C  0.82652111  0.63446976  0.39731860     0.29490
C858        C  0.79486190  0.62069859  0.39124354    -0.21330
C859        C  0.78476725  0.59130774  0.40721143    -0.09380
C860        C  0.80767568  0.57500095  0.42837128     0.29490
F861        F  0.79882148  0.54623486  0.44379012    -0.19910
H862        H  0.85616550  0.57670307  0.45203377     0.17860
H863        H  0.77818528  0.63307140  0.37397488     0.17860
F864        F  0.83471088  0.66375754  0.38245392    -0.19900
C865        C  0.02601093  0.82478935  0.37282014    -0.21330
C866        C  0.04090519  0.79625318  0.38660927    -0.09370
C867        C  0.06405717  0.77790346  0.36760450     0.29490
C868        C  0.07191001  0.78806464  0.33530083    -0.21330
C869        C  0.05709878  0.81670806  0.32188695    -0.09380
C870        C  0.03390686  0.83489815  0.34071044     0.29490
F871        F  0.01871173  0.86222716  0.32774150    -0.19910
H872        H  0.00791027  0.83919449  0.38676326     0.17860
H873        H  0.08967448  0.77383763  0.32077029     0.17860
F874        F  0.07864171  0.74994962  0.37987610    -0.19900
C875        C  0.02099114  0.82854006  0.66833347    -0.21330
C876        C  0.04990232  0.81587336  0.68347069    -0.09370
C877        C  0.06874347  0.79131558  0.66713260     0.29490
C878        C  0.05940281  0.78062774  0.63537396    -0.21330
C879        C  0.03130770  0.79441232  0.61943681    -0.09380
C880        C  0.01174705  0.81810010  0.63648108     0.29490
F881        F  0.98410691  0.83173534  0.62226372    -0.19910
H882        H  0.00643298  0.84766026  0.68065972     0.17860
H883        H  0.07470304  0.76220035  0.62291325     0.17860
F884        F  0.09696510  0.77880610  0.68124096    -0.19900
C885        C  0.91365768  0.81948390  0.36503649    -0.21330
C886        C  0.89339532  0.79428556  0.37874004    -0.09370
C887        C  0.86696841  0.78101915  0.35959002     0.29490
C888        C  0.86031608  0.79388653  0.32787349    -0.21330
C889        C  0.87961845  0.82027696  0.31515742    -0.09380
C890        C  0.90680351  0.83246760  0.33366351     0.29490
F891        F  0.92545910  0.85837192  0.32234864    -0.19910
H892        H  0.93440744  0.82997399  0.37900316     0.17860
H893        H  0.83908553  0.78444751  0.31388492     0.17860
F894        F  0.84687039  0.75663901  0.37185285    -0.19900
C895        C  0.91329681  0.79797050  0.72669918    -0.21330
C896        C  0.88475198  0.81569928  0.73787858    -0.09370
C897        C  0.88071801  0.81773843  0.77304665     0.29490
C898        C  0.90637271  0.80657482  0.79491517    -0.21330
C899        C  0.93469040  0.78964276  0.78259569    -0.09380
C900        C  0.93665258  0.78429878  0.74822977     0.29490
F901        F  0.96218744  0.76640571  0.73491612    -0.19910
H902        H  0.91848929  0.79405029  0.70063810     0.17860
H903        H  0.90364418  0.81020459  0.82146994     0.17860
F904        F  0.85178504  0.82828419  0.78689001    -0.19900
C905        C  0.79089322  0.87136348  0.75017300    -0.21330
C906        C  0.82533278  0.87127603  0.74370248    -0.09370
C907        C  0.84605110  0.89324707  0.76172988     0.29490
C908        C  0.83193716  0.91592144  0.78444673    -0.21330
C909        C  0.79679625  0.91906304  0.78763373    -0.09380
C910        C  0.77656973  0.89556599  0.77057326     0.29490
F911        F  0.74326903  0.89987430  0.76715332    -0.19910
H912        H  0.77437017  0.85531540  0.73587327     0.17860
H913        H  0.84823074  0.93406048  0.79627616     0.17860
F914        F  0.87939800  0.89472263  0.75537216    -0.19900
C915        C  0.88765035  0.83806748  0.65570179    -0.21330
C916        C  0.86823141  0.81789532  0.67651192    -0.09370
C917        C  0.85551994  0.78745662  0.66467291     0.29490
C918        C  0.86222867  0.77743917  0.63202380    -0.21330
C919        C  0.88179658  0.79768588  0.61114989    -0.09380
C920        C  0.89405011  0.82838046  0.62318281     0.29490
F921        F  0.91231254  0.84913712  0.60363516    -0.19910
H922        H  0.89761290  0.86154045  0.66475711     0.17860
H923        H  0.85279840  0.75362338  0.62334228     0.17860
F924        F  0.83685345  0.76759154  0.68473096    -0.19900
C925        C  0.59084635  0.82706372  0.43260052    -0.21330
C926        C  0.61957405  0.84103513  0.41821257    -0.09370
C927        C  0.63841816  0.82227958  0.39526163     0.29490
C928        C  0.62862846  0.78983000  0.38728710    -0.21330
C929        C  0.59996155  0.77612397  0.40186240    -0.09380
C930        C  0.58125831  0.79475905  0.42478394     0.29490
F931        F  0.55415076  0.78123149  0.44007498    -0.19910
H932        H  0.57605358  0.84090784  0.45041742     0.17860
H933        H  0.64331734  0.77532803  0.36990919     0.17860
F934        F  0.66656467  0.83487399  0.38110419    -0.19900
C935        C  0.59533740  0.09096733  0.55101262    -0.21330
C936        C  0.61982858  0.07423269  0.56989582    -0.09370
C937        C  0.63487500  0.09094021  0.59696161     0.29490
C938        C  0.62464106  0.12311819  0.60552408    -0.21330
C939        C  0.59913295  0.13911709  0.58753776    -0.09380
C940        C  0.58515309  0.12318324  0.55964232     0.29490
F941        F  0.56059648  0.13821102  0.54171481    -0.19910
H942        H  0.58365558  0.07893889  0.52979562     0.17860
H943        H  0.63570557  0.13519682  0.62704131     0.17860
F944        F  0.65887119  0.07602517  0.61571673    -0.19900
C945        C  0.59425265  0.08726378  0.43856239    -0.21330
C946        C  0.61823156  0.07044343  0.41927756    -0.09370
C947        C  0.63177614  0.08632779  0.39111744     0.29490
C948        C  0.62172203  0.11862026  0.38283721    -0.21330
C949        C  0.59806833  0.13536632  0.40243732    -0.09380
C950        C  0.58432973  0.11949857  0.43032587     0.29490
F951        F  0.56167366  0.13546923  0.44975935    -0.19910
H952        H  0.58355977  0.07571862  0.46046071     0.17860
H953        H  0.63255560  0.13079593  0.36135263     0.17860
F954        F  0.65479113  0.07086280  0.37171927    -0.19900
C955        C  0.62975003  0.82252209  0.59895060    -0.21330
C956        C  0.61891253  0.83727451  0.56910703    -0.09370
C957        C  0.59849075  0.81868653  0.54718686     0.29490
C958        C  0.58842272  0.78647316  0.55552360    -0.21330
C959        C  0.59815433  0.77234294  0.58584897    -0.09380
C960        C  0.61938787  0.79027576  0.60736161     0.29490
F961        F  0.62958260  0.77680504  0.63664597    -0.19910
H962        H  0.64572993  0.83616302  0.61604511     0.17860
H963        H  0.57207834  0.77283805  0.53874394     0.17860
F964        F  0.58808937  0.83152723  0.51769439    -0.19900
C965        C  0.78512201  0.85573425  0.36399441    -0.21330
C966        C  0.79919972  0.87868627  0.38656443    -0.09370
C967        C  0.82959174  0.89436403  0.37794495     0.29490
C968        C  0.84403326  0.88896130  0.34641097    -0.21330
C969        C  0.82897519  0.86715426  0.32328460    -0.09380
C970        C  0.80013693  0.84944678  0.33309925     0.29490
F971        F  0.78536120  0.82751875  0.31185734    -0.19910
H972        H  0.76162735  0.84351555  0.36983744     0.17860
H973        H  0.86664189  0.90230792  0.33972658     0.17860
F974        F  0.84409261  0.91659811  0.39900766    -0.19900
C975        C  0.77465465  0.05441337  0.63511513    -0.21330
C976        C  0.79134364  0.03663552  0.60991783    -0.09370
C977        C  0.82391924  0.02484968  0.61591419     0.29490
C978        C  0.83877345  0.02961705  0.64705376    -0.21330
C979        C  0.82178413  0.04684400  0.67241585    -0.09380
C980        C  0.78972943  0.05952845  0.66612811     0.29490
F981        F  0.77297514  0.07646220  0.69011656    -0.19910
H982        H  0.74928994  0.06317560  0.63117711     0.17860
H983        H  0.86344157  0.01942716  0.65173271     0.17860
F984        F  0.84040559  0.00659944  0.59271359    -0.19900
C985        C  0.81669815  0.90186586  0.63253453    -0.21330
C986        C  0.79281158  0.88104165  0.61714783    -0.09370
C987        C  0.78189505  0.85250696  0.63443395     0.29490
C988        C  0.79521447  0.84452914  0.66584823    -0.21330
C989        C  0.81924077  0.86518636  0.68122354    -0.09380
C990        C  0.82957201  0.89422994  0.66433353     0.29490
F991        F  0.85262261  0.91486175  0.67837282    -0.19910
H992        H  0.82445139  0.92473867  0.62046028     0.17860
H993        H  0.78703852  0.82193851  0.67815338     0.17860
F994        F  0.75804544  0.83240271  0.62093674    -0.19900
C995        C  0.78286758  0.06048137  0.36857120    -0.21330
C996        C  0.79461664  0.03256176  0.38601523    -0.09370
C997        C  0.81753454  0.01108613  0.37042203     0.29490
C998        C  0.82857558  0.01766637  0.33796572    -0.21330
C999        C  0.81740579  0.04609452  0.32083933    -0.09380
C1000       C  0.79434040  0.06745891  0.33649824     0.29490
F1001       F  0.78338927  0.09538107  0.32085988    -0.19910
H1002       H  0.76408096  0.07649225  0.37958393     0.17860
H1003       H  0.84670869  0.00121532  0.32654157     0.17860
F1004       F  0.82787304  0.98289452  0.38592543    -0.19900
C1005       C  0.82468853  0.27747596  0.39941859    -0.21330
C1006       C  0.84130170  0.29468748  0.42511977    -0.09370
C1007       C  0.82397336  0.31964591  0.44271622     0.29490
C1008       C  0.79101792  0.32752894  0.43424289    -0.21330
C1009       C  0.77511459  0.31149635  0.40751976    -0.09380
C1010       C  0.79192123  0.28590988  0.39050075     0.29490
F1011       F  0.77734778  0.27047089  0.36408251    -0.19910
H1012       H  0.83736138  0.25808380  0.38557619     0.17860
H1013       H  0.77855119  0.34770398  0.44715210     0.17860
F1014       F  0.83914208  0.33739888  0.46725840    -0.19900
C1015       C  0.09212757  0.27925897  0.60137782    -0.21330
C1016       C  0.07415622  0.29896554  0.57857477    -0.09370
C1017       C  0.08955367  0.32719897  0.56454504     0.29490
C1018       C  0.12267842  0.33471867  0.57223142    -0.21330
C1019       C  0.14064312  0.31486248  0.59467407    -0.09380
C1020       C  0.12525091  0.28716452  0.60945420     0.29490
F1021       F  0.14243554  0.26766197  0.63113425    -0.19910
H1022       H  0.08079314  0.25738385  0.61245397     0.17860
H1023       H  0.13442032  0.35628655  0.56094322     0.17860
F1024       F  0.07275340  0.34758234  0.54338633    -0.19900
C1025       C  0.79249164  0.29095578  0.60810188    -0.21330
C1026       C  0.77537409  0.31466424  0.58886300    -0.09370
C1027       C  0.79004867  0.32693759  0.55967667     0.29490
C1028       C  0.82238797  0.31722287  0.55108774    -0.21330
C1029       C  0.84015654  0.29455057  0.57100839    -0.09380
C1030       C  0.82460914  0.28081032  0.59924797     0.29490
F1031       F  0.84072936  0.25852689  0.61898186    -0.19910
H1032       H  0.78127720  0.28127910  0.63063566     0.17860
H1033       H  0.83376476  0.32794013  0.52918533     0.17860
F1034       F  0.77390791  0.34992998  0.54078637    -0.19900
C1035       C  0.09733230  0.27902230  0.40153217    -0.21330
C1036       C  0.08224753  0.29198363  0.43031413    -0.09370
C1037       C  0.10119039  0.31292478  0.45137548     0.29490
C1038       C  0.13364091  0.32246746  0.44252552    -0.21330
C1039       C  0.14749808  0.31183176  0.41233425    -0.09380
C1040       C  0.12970954  0.28883086  0.39255237     0.29490
F1041       F  0.14280562  0.27767125  0.36348191    -0.19910
H1042       H  0.08356487  0.26238152  0.38520851     0.17860
H1043       H  0.14705402  0.34014949  0.45804082     0.17860
F1044       F  0.08806930  0.32514594  0.47996392    -0.19900
C1045       C  0.85920016  0.14327782  0.36333280    -0.21330
C1046       C  0.87619755  0.12591824  0.38865601    -0.09370
C1047       C  0.88540586  0.09255208  0.38322776     0.29490
C1048       C  0.87960606  0.07776233  0.35217514    -0.21330
C1049       C  0.86396388  0.09577971  0.32639139    -0.09380
C1050       C  0.85320961  0.12844287  0.33245999     0.29490
F1051       F  0.83808667  0.14633653  0.30803425    -0.19910
H1052       H  0.85220106  0.16912019  0.36685919     0.17860
H1053       H  0.88855260  0.05270303  0.34767558     0.17860
F1054       F  0.90256590  0.07522939  0.40671134    -0.19900
C1055       C  0.07353006  0.12345926  0.66085810    -0.21330
C1056       C  0.05126664  0.10152094  0.67683945    -0.09370
C1057       C  0.02148826  0.09222081  0.66043320     0.29490
C1058       C  0.01472823  0.10387016  0.62822779    -0.21330
C1059       C  0.03724754  0.12541499  0.61215363    -0.09380
C1060       C  0.06650002  0.13546799  0.62892661     0.29490
F1061       F  0.08794820  0.15744696  0.61457225    -0.19910
H1062       H  0.09668373  0.13072965  0.67300608     0.17860
H1063       H  0.99120506  0.09725441  0.61639581     0.17860
F1064       F  0.99940460  0.07123180  0.67529004    -0.19900
C1065       C  0.84988940  0.11802818  0.66069995    -0.21330
C1066       C  0.87130945  0.09309846  0.67292557    -0.09370
C1067       C  0.89835424  0.08247416  0.65327057     0.29490
C1068       C  0.90358966  0.09638774  0.62173686    -0.21330
C1069       C  0.88251290  0.12173257  0.60982174    -0.09380
C1070       C  0.85565442  0.13250819  0.62960033     0.29490
F1071       F  0.83560718  0.15774727  0.61916936    -0.19910
H1072       H  0.82894389  0.12644960  0.67555659     0.17860
H1073       H  0.92518954  0.08869509  0.60741164     0.17860
F1074       F  0.91947871  0.05853687  0.66459235    -0.19900
C1075       C  0.01943929  0.09015764  0.37761143    -0.21330
C1076       C  0.03342237  0.12178185  0.38369577    -0.09370
C1077       C  0.05276990  0.13687020  0.35858097     0.29490
C1078       C  0.05781628  0.12081943  0.32811352    -0.21330
C1079       C  0.04349332  0.08948260  0.32172680    -0.09380
C1080       C  0.02425460  0.07419367  0.34682681     0.29490
F1081       F  0.01035998  0.04373177  0.34156776    -0.19910
H1082       H  0.00372774  0.07839844  0.39614847     0.17860
H1083       H  0.07372117  0.13258973  0.30979032     0.17860
F1084       F  0.06672505  0.16740803  0.36346230    -0.19900
C1085       C  0.28315450  0.81983058  0.60100524    -0.21330
C1086       C  0.29676841  0.83395702  0.57199412    -0.09370
C1087       C  0.31821856  0.81449477  0.55212565     0.29490
C1088       C  0.32714225  0.78232089  0.56219042    -0.21330
C1089       C  0.31532264  0.76924039  0.59235907    -0.09380
C1090       C  0.29231779  0.78778249  0.61114628     0.29490
F1091       F  0.28003088  0.77548019  0.64010822    -0.19910
H1092       H  0.26616821  0.83399749  0.61648247     0.17860
H1093       H  0.34480882  0.76825084  0.54737030     0.17860
F1094       F  0.33114311  0.82666717  0.52337354    -0.19900
C1095       C  0.32286873  0.09097537  0.44844225    -0.21330
C1096       C  0.30087926  0.07336455  0.42745216    -0.09370
C1097       C  0.28888657  0.08877873  0.39832536     0.29490
C1098       C  0.29964313  0.12086424  0.39007593    -0.21330
C1099       C  0.32228705  0.13801003  0.41079844    -0.09380
C1100       C  0.33299793  0.12326086  0.44057691     0.29490
F1101       F  0.35468297  0.13948012  0.46107743    -0.19910
H1102       H  0.33263562  0.07958042  0.47079065     0.17860
H1103       H  0.29112633  0.13211929  0.36707638     0.17860
F1104       F  0.26772319  0.07257319  0.37728896    -0.19900
C1105       C  0.31509269  0.09230733  0.55047024    -0.21330
C1106       C  0.29790731  0.07312345  0.57413475    -0.09370
C1107       C  0.28919595  0.08781189  0.60473642     0.29490
C1108       C  0.29908042  0.12062865  0.61187317    -0.21330
C1109       C  0.31728764  0.13925296  0.58842720    -0.09380
C1110       C  0.32433917  0.12513785  0.55728657     0.29490
F1111       F  0.34231303  0.14236034  0.53436574    -0.19910
H1112       H  0.32184878  0.08166965  0.52673706     0.17860
H1113       H  0.29371130  0.13114028  0.63610883     0.17860
F1114       F  0.27255230  0.07008363  0.62824256    -0.19900
C1115       C  0.29431680  0.78655873  0.39885335    -0.21330
C1116       C  0.32711154  0.77724835  0.40720925    -0.09370
C1117       C  0.34886769  0.80073011  0.42181953     0.29490
C1118       C  0.33769017  0.83279244  0.42860982    -0.21330
C1119       C  0.30477918  0.84213535  0.42079040    -0.09380
C1120       C  0.28319577  0.81898027  0.40530454     0.29490
F1121       F  0.25105350  0.82712734  0.39781343    -0.19910
H1122       H  0.27741337  0.76863419  0.38756782     0.17860
H1123       H  0.35463547  0.85015693  0.44069380     0.17860
F1124       F  0.38029297  0.79188665  0.43128210    -0.19900
C1125       C  0.11631207  0.06422101  0.33964038    -0.21330
C1126       C  0.09305206  0.04134493  0.32643455    -0.09370
C1127       C  0.08422050  0.01316910  0.34519989     0.29490
C1128       C  0.09860061  0.00794708  0.37662984    -0.21330
C1129       C  0.12256264  0.03033700  0.38937350    -0.09380
C1130       C  0.13120735  0.05861749  0.37068744     0.29490
F1131       F  0.15495004  0.08015105  0.38199957    -0.19910
H1132       H  0.12356370  0.08594046  0.32535557     0.17860
H1133       H  0.09257520  0.98536570  0.39012710     0.17860
F1134       F  0.06230288  0.99041312  0.33273830    -0.19900
C1135       C  0.12967235  0.84716649  0.66713832    -0.21330
C1136       C  0.10096607  0.86405797  0.67792411    -0.09370
C1137       C  0.08482200  0.88606850  0.65581288     0.29490
C1138       C  0.09785834  0.89166155  0.62380521    -0.21330
C1139       C  0.12729810  0.87553712  0.61350620    -0.09380
C1140       C  0.14276750  0.85285375  0.63538650     0.29490
F1141       F  0.17135579  0.83697311  0.62636534    -0.19910
H1142       H  0.14204980  0.82955624  0.68342481     0.17860
H1143       H  0.08607762  0.90999048  0.60785718     0.17860
F1144       F  0.05683219  0.90257185  0.66545057    -0.19900
C1145       C  0.09640503  0.02889832  0.61574873    -0.21330
C1146       C  0.12946874  0.03888876  0.60929697    -0.09370
C1147       C  0.14681348  0.05789303  0.63336273     0.29490
C1148       C  0.13201433  0.06512280  0.66396857    -0.21330
C1149       C  0.09970309  0.05361356  0.67114122    -0.09380
C1150       C  0.08170219  0.03584280  0.64659763     0.29490
F1151       F  0.05082493  0.02338669  0.65335305    -0.19910
H1152       H  0.08294571  0.01347861  0.59803480     0.17860
H1153       H  0.14611362  0.07884378  0.68256604     0.17860
F1154       F  0.17887335  0.06789402  0.62796810    -0.19900
C1155       C  0.10502793  0.89752244  0.36953233    -0.21330
C1156       C  0.12919025  0.87705557  0.38465212    -0.09370
C1157       C  0.14205166  0.84989984  0.36661389     0.29490
C1158       C  0.13052275  0.84298386  0.33439717    -0.21330
C1159       C  0.10633351  0.86334351  0.31924571    -0.09380
C1160       C  0.09389275  0.89095185  0.33698004     0.29490
F1161       F  0.07073765  0.91129522  0.32288362    -0.19910
H1162       H  0.09604635  0.91954245  0.38229661     0.17860
H1163       H  0.14018206  0.82147683  0.32127032     0.17860
F1164       F  0.16647500  0.83052501  0.37996637    -0.19900
C1165       C  0.41218273  0.81340689  0.35161012    -0.21330
C1166       C  0.38863116  0.83295460  0.33462368    -0.09370
C1167       C  0.35743897  0.81888790  0.32601809     0.29490
C1168       C  0.34927882  0.78666548  0.33663174    -0.21330
C1169       C  0.37200972  0.76828877  0.35608400    -0.09380
C1170       C  0.40418886  0.78123592  0.36198591     0.29490
F1171       F  0.42689794  0.76384280  0.38019642    -0.19910
H1172       H  0.43657406  0.82339204  0.35759497     0.17860
H1173       H  0.32450114  0.77679921  0.33155078     0.17860
F1174       F  0.33415821  0.83684801  0.30914062    -0.19900
C1175       C  0.51292670  0.09217970  0.36288347    -0.21330
C1176       C  0.53029152  0.07588290  0.33720398    -0.09370
C1177       C  0.55540074  0.09354079  0.31989193     0.29490
C1178       C  0.56388887  0.12608793  0.32927113    -0.21330
C1179       C  0.54784232  0.14149338  0.35616640    -0.09380
C1180       C  0.52157724  0.12468979  0.37230199     0.29490
F1181       F  0.50561844  0.13902953  0.39841023    -0.19910
H1182       H  0.49319134  0.07945905  0.37631067     0.17860
H1183       H  0.58430331  0.13866118  0.31673227     0.17860
F1184       F  0.57257285  0.07914087  0.29458344    -0.19900
C1185       C  0.39604318  0.08040185  0.37197216    -0.21330
C1186       C  0.38285940  0.06846620  0.34182187    -0.09370
C1187       C  0.36287623  0.08961023  0.32206793     0.29490
C1188       C  0.35639946  0.12223875  0.33257090    -0.21330
C1189       C  0.36943914  0.13377156  0.36290004    -0.09380
C1190       C  0.38957442  0.11272442  0.38237913     0.29490
F1191       F  0.40352688  0.12389706  0.41117086    -0.19910
H1192       H  0.41178213  0.06481371  0.38746158     0.17860
H1193       H  0.34103390  0.13842524  0.31733775     0.17860
F1194       F  0.35026553  0.07912646  0.29243853    -0.19900
C1195       C  0.56152179  0.82030972  0.32198120    -0.21330
C1196       C  0.53508021  0.83677294  0.33812336    -0.09370
C1197       C  0.51642270  0.81940818  0.36228902     0.29490
C1198       C  0.52392071  0.78635241  0.36983094    -0.21330
C1199       C  0.55145620  0.77062700  0.35515576    -0.09380
C1200       C  0.56997749  0.78761003  0.33071435     0.29490
F1201       F  0.59697690  0.77298241  0.31639787    -0.19910
H1202       H  0.57624401  0.83303779  0.30327673     0.17860
H1203       H  0.50983092  0.77376852  0.38912134     0.17860
F1204       F  0.49193784  0.83470954  0.37990020    -0.19900
C1205       C  0.61503863  0.01924566  0.12991151    -0.21330
C1206       C  0.63428237  0.04650188  0.14074698    -0.09370
C1207       C  0.62155993  0.06773658  0.16550805     0.29490
C1208       C  0.59003732  0.06157813  0.17924703    -0.21330
C1209       C  0.57043178  0.03479915  0.16784871    -0.09380
C1210       C  0.58302129  0.01380492  0.14282856     0.29490
F1211       F  0.56520228  0.98690074  0.13234775    -0.19910
H1212       H  0.62458695  0.00274153  0.11082354     0.17860
H1213       H  0.58125715  0.07713212  0.19946830     0.17860
F1214       F  0.63997869  0.09398022  0.17665086    -0.19900
C1215       C  0.30529462  0.02105885  0.11954171    -0.21330
C1216       C  0.28299618  0.04383021  0.13418999    -0.09370
C1217       C  0.29209072  0.05921789  0.16432398     0.29490
C1218       C  0.32262070  0.05161622  0.17967561    -0.21330
C1219       C  0.34501625  0.02893853  0.16513894    -0.09380
C1220       C  0.33615217  0.01371512  0.13477563     0.29490
F1221       F  0.35638683  0.99046433  0.12080654    -0.19910
H1222       H  0.29886480  0.00920332  0.09615404     0.17860
H1223       H  0.32860000  0.06308459  0.20339442     0.17860
F1224       F  0.27153101  0.08184268  0.17880786    -0.19900
C1225       C  0.73212139  0.77139161  0.05740203    -0.21330
C1226       C  0.74550971  0.79169228  0.03212803    -0.09370
C1227       C  0.73782905  0.82602848  0.03290257     0.29490
C1228       C  0.71361296  0.83837456  0.05475038    -0.21330
C1229       C  0.69950352  0.81820895  0.07951813    -0.09380
C1230       C  0.71029085  0.78470809  0.08144017     0.29490
F1231       F  0.69800409  0.76401999  0.10505165    -0.19910
H1232       H  0.73636347  0.74475768  0.05708908     0.17860
H1233       H  0.70377468  0.86286808  0.04995704     0.17860
F1234       F  0.74990677  0.84669470  0.00899037    -0.19900
C1235       C  0.58814627  0.89946094  0.14132723    -0.21330
C1236       C  0.57488482  0.87913799  0.16653612    -0.09370
C1237       C  0.59332352  0.85144173  0.17744775     0.29490
C1238       C  0.62450091  0.84424705  0.16341885    -0.21330
C1239       C  0.63799483  0.86472079  0.13848567    -0.09380
C1240       C  0.61961693  0.89248925  0.12754171     0.29490
F1241       F  0.63223250  0.91287921  0.10370515    -0.19910
H1242       H  0.57483681  0.92157825  0.13344611     0.17860
H1243       H  0.63826029  0.82271162  0.17210456     0.17860
F1244       F  0.58137161  0.83171810  0.20216937    -0.19900
C1245       C  0.31357860  0.87443050  0.12177452    -0.21330
C1246       C  0.28902293  0.85696368  0.13986006    -0.09370
C1247       C  0.29695367  0.84428637  0.17133759     0.29490
C1248       C  0.32858801  0.84999547  0.18502958    -0.21330
C1249       C  0.35266413  0.86892403  0.16783097    -0.09380
C1250       C  0.34530403  0.88029820  0.13555695     0.29490
F1251       F  0.36742352  0.89963461  0.11867539    -0.19910
H1252       H  0.30758374  0.88463169  0.09753821     0.17860
H1253       H  0.33357115  0.84147129  0.21013813     0.17860
F1254       F  0.27361818  0.82750005  0.18927601    -0.19900
C1255       C  0.51737579  0.58774503  0.13363502    -0.21330
C1256       C  0.53066283  0.61772467  0.12131543    -0.09370
C1257       C  0.55030743  0.63778402  0.14261449     0.29490
C1258       C  0.55742949  0.62709900  0.17516155    -0.21330
C1259       C  0.54539406  0.59625307  0.18666460    -0.09380
C1260       C  0.52469312  0.57702185  0.16576729     0.29490
F1261       F  0.51372576  0.54650378  0.17539155    -0.19910
H1262       H  0.50210038  0.57179805  0.11795465     0.17860
H1263       H  0.57376079  0.64201401  0.19080903     0.17860
F1264       F  0.56310898  0.66725028  0.13191799    -0.19900
C1265       C  0.40440690  0.58703990  0.13342800    -0.21330
C1266       C  0.38708595  0.61319024  0.11788368    -0.09370
C1267       C  0.36250805  0.63087161  0.13572542     0.29490
C1268       C  0.35517041  0.62197816  0.16844060    -0.21330
C1269       C  0.37158042  0.59495881  0.18320240    -0.09380
C1270       C  0.39675849  0.57797380  0.16586714     0.29490
F1271       F  0.41340873  0.55225544  0.18029686    -0.19910
H1272       H  0.42375484  0.57337951  0.12042663     0.17860
H1273       H  0.33603744  0.63541629  0.18196580     0.17860
F1274       F  0.34542100  0.65648192  0.12165125    -0.19900
C1275       C  0.39859927  0.57698407  0.83235010    -0.21330
C1276       C  0.37087543  0.59156494  0.81673746    -0.09370
C1277       C  0.35109840  0.61447132  0.83429774     0.29490
C1278       C  0.35914882  0.62259362  0.86718280    -0.21330
C1279       C  0.38655855  0.60743371  0.88316322    -0.09380
C1280       C  0.40607039  0.58428905  0.86545815     0.29490
F1281       F  0.43189752  0.56808943  0.88022024    -0.19910
H1282       H  0.41349759  0.55865478  0.81925518     0.17860
H1283       H  0.34369348  0.64046898  0.88024352     0.17860
F1284       F  0.32381237  0.62849816  0.81978709    -0.19900
C1285       C  0.51378730  0.59260319  0.86515857    -0.21330
C1286       C  0.53465250  0.61442173  0.88309560    -0.09370
C1287       C  0.56261248  0.62869239  0.86725145     0.29490
C1288       C  0.57012290  0.62004159  0.83448898    -0.21330
C1289       C  0.54990646  0.59715906  0.81714749    -0.09380
C1290       C  0.52101936  0.58435452  0.83228466     0.29490
F1291       F  0.50104764  0.56227960  0.81592895    -0.19910
H1292       H  0.49210589  0.58150231  0.87676449     0.17860
H1293       H  0.59250369  0.63002629  0.82298072     0.17860
F1294       F  0.58335173  0.65001240  0.88364222    -0.19900
C1295       C  0.59110220  0.77507886  0.09845361    -0.21330
C1296       C  0.57092149  0.79011870  0.07400281    -0.09370
C1297       C  0.58308585  0.81879189  0.05785193     0.29490
C1298       C  0.61538028  0.83109733  0.06524088    -0.21330
C1299       C  0.63594235  0.81522742  0.08897166    -0.09380
C1300       C  0.62294204  0.78759172  0.10618908     0.29490
F1301       F  0.64068836  0.77286600  0.13092862    -0.19910
H1302       H  0.58247225  0.75277655  0.11102132     0.17860
H1303       H  0.62448207  0.85301228  0.05236476     0.17860
F1304       F  0.56472873  0.83364087  0.03358540    -0.19900
C1305       C  0.32765587  0.77277130  0.10178225    -0.21330
C1306       C  0.34474240  0.78431930  0.07359473    -0.09370
C1307       C  0.32994434  0.80911395  0.05371789     0.29490
C1308       C  0.29837946  0.82190509  0.06197050    -0.21330
C1309       C  0.28151421  0.81066409  0.09048849    -0.09380
C1310       C  0.29659571  0.78612471  0.11051325     0.29490
F1311       F  0.28123999  0.77521677  0.13857127    -0.19910
H1312       H  0.33822070  0.75294850  0.11677128     0.17860
H1313       H  0.28736008  0.84117072  0.04658837     0.17860
F1314       F  0.34520186  0.81970330  0.02547718    -0.19900
C1315       C  0.68872487  0.89397867  0.83149498    -0.21330
C1316       C  0.69361983  0.87819888  0.86273004    -0.09370
C1317       C  0.72283726  0.88772380  0.88056799     0.29490
C1318       C  0.74706756  0.90907543  0.86585850    -0.21330
C1319       C  0.74021225  0.92587945  0.83571689    -0.09380
C1320       C  0.70955083  0.91929573  0.82016643     0.29490
F1321       F  0.69948113  0.93766201  0.79354460    -0.19910
H1322       H  0.66714360  0.88872129  0.81606454     0.17860
H1323       H  0.76970511  0.91492721  0.87958151     0.17860
F1324       F  0.72678506  0.87956551  0.91300959    -0.19900
C1325       C  0.67998793  0.80587184  0.95358392    -0.21330
C1326       C  0.69102324  0.81771085  0.92242306    -0.09370
C1327       C  0.72511510  0.81197338  0.91450413     0.29490
C1328       C  0.74758879  0.79944032  0.93904072    -0.21330
C1329       C  0.73558928  0.78789085  0.97016866    -0.09380
C1330       C  0.70080673  0.78908368  0.97534196     0.29490
F1331       F  0.68646406  0.77467164  0.00235948    -0.19910
H1332       H  0.65428546  0.80833850  0.96146461     0.17860
H1333       H  0.77406827  0.79857891  0.93347858     0.17860
F1334       F  0.73676369  0.81819603  0.88345917    -0.19900
C1335       C  0.62345124  0.78340297  0.88936386    -0.21330
C1336       C  0.63039206  0.81424196  0.90428538    -0.09370
C1337       C  0.60539565  0.82985671  0.92349032     0.29490
C1338       C  0.57425495  0.81451004  0.92804600    -0.21330
C1339       C  0.56780072  0.78304072  0.91419077    -0.09380
C1340       C  0.59243309  0.76786910  0.89427146     0.29490
F1341       F  0.58693755  0.73729735  0.88075420    -0.19910
H1342       H  0.64228284  0.77123253  0.87430810     0.17860
H1343       H  0.55619285  0.82605436  0.94447626     0.17860
F1344       F  0.61195299  0.85904573  0.93935817    -0.19900
C1345       C  0.71447754  0.01482103  0.88068761    -0.21330
C1346       C  0.70048084  0.03844716  0.85926920    -0.09370
C1347       C  0.71009466  0.03720802  0.82543995     0.29490
C1348       C  0.73102276  0.01156346  0.81361376    -0.21330
C1349       C  0.74527579  0.98822225  0.83564181    -0.09380
C1350       C  0.73831233  0.99199601  0.86981254     0.29490
F1351       F  0.75242465  0.97176996  0.89286013    -0.19910
H1352       H  0.70492661  0.01150451  0.90527511     0.17860
H1353       H  0.73458141  0.00909526  0.78704949     0.17860
F1354       F  0.69768118  0.05937535  0.80324876    -0.19900
C1355       C  0.30270655  0.79241288  0.87307712    -0.21330
C1356       C  0.27661659  0.79810758  0.89642529    -0.09370
C1357       C  0.28073691  0.78169022  0.92737720     0.29490
C1358       C  0.31216110  0.77027678  0.93750154    -0.21330
C1359       C  0.33998620  0.77186116  0.91631591    -0.09380
C1360       C  0.33460533  0.78132458  0.88323855     0.29490
F1361       F  0.35968348  0.77891454  0.86063325    -0.19910
H1362       H  0.29901425  0.79733880  0.84696110     0.17860
H1363       H  0.31448432  0.75894420  0.96188013     0.17860
F1364       F  0.25444750  0.77390574  0.94713406    -0.19900
C1365       C  0.51531506  0.82320442  0.62545954    -0.21330
C1366       C  0.52934396  0.83500097  0.65538999    -0.09370
C1367       C  0.55025686  0.81378870  0.67404679     0.29490
C1368       C  0.55749159  0.78173805  0.66235031    -0.21330
C1369       C  0.54444499  0.77069521  0.63181186    -0.09380
C1370       C  0.52289322  0.79141379  0.61367042     0.29490
F1371       F  0.51029030  0.78136376  0.58388993    -0.19910
H1372       H  0.49899086  0.83888461  0.61068729     0.17860
H1373       H  0.57433092  0.76598102  0.67645513     0.17860
F1374       F  0.56397534  0.82400357  0.70329175    -0.19900
C1375       C  0.37433976  0.09699625  0.67527246    -0.21330
C1376       C  0.38956259  0.07431474  0.65339617    -0.09370
C1377       C  0.39665062  0.08396484  0.62060087     0.29490
C1378       C  0.38806269  0.11565013  0.60977001    -0.21330
C1379       C  0.37276011  0.13829336  0.63151330    -0.09380
C1380       C  0.36622725  0.12903508  0.66446172     0.29490
F1381       F  0.35100656  0.15054981  0.68564752    -0.19910
H1382       H  0.36889525  0.08997477  0.70071650     0.17860
H1383       H  0.39249635  0.12226869  0.58403907     0.17860
F1384       F  0.41080765  0.06247656  0.59865083    -0.19900
C1385       C  0.52165313  0.08521657  0.63101505    -0.21330
C1386       C  0.53943844  0.06953430  0.65683159    -0.09370
C1387       C  0.56479799  0.08730735  0.67373486     0.29490
C1388       C  0.57212049  0.12017000  0.66468211    -0.21330
C1389       C  0.55454030  0.13535817  0.63855173    -0.09380
C1390       C  0.52898819  0.11786699  0.62204266     0.29490
F1391       F  0.51123000  0.13253175  0.59719833    -0.19910
H1392       H  0.50176657  0.07232333  0.61783356     0.17860
H1393       H  0.59176525  0.13366356  0.67761687     0.17860
F1394       F  0.58240102  0.07312175  0.69893983    -0.19900
C1395       C  0.39351216  0.82820198  0.62771248    -0.21330
C1396       C  0.37977531  0.84274190  0.65634465    -0.09370
C1397       C  0.35804623  0.82391743  0.67659279     0.29490
C1398       C  0.35069833  0.79089302  0.66834035    -0.21330
C1399       C  0.36440311  0.77668509  0.63965130    -0.09380
C1400       C  0.38595393  0.79542060  0.61940834     0.29490
F1401       F  0.39998910  0.78166028  0.59189959    -0.19910
H1402       H  0.41046564  0.84207572  0.61188862     0.17860
H1403       H  0.33420889  0.77642163  0.68410742     0.17860
F1404       F  0.34453554  0.83701541  0.70466054    -0.19900
C1405       C  0.33538974  0.01808614  0.85933746    -0.21330
C1406       C  0.34509004  0.03349427  0.82945107    -0.09370
C1407       C  0.32287616  0.05602296  0.81422578     0.29490
C1408       C  0.29185594  0.06311204  0.82853960    -0.21330
C1409       C  0.28172899  0.04750186  0.85809083    -0.09380
C1410       C  0.30387503  0.02485823  0.87346852     0.29490
F1411       F  0.29514347  0.00971860  0.90237021    -0.19910
H1412       H  0.35160447  0.99989351  0.87102250     0.17860
H1413       H  0.27625795  0.08175546  0.81692248     0.17860
F1414       F  0.33118410  0.07119828  0.78519373    -0.19900
C1415       C  0.58003254  0.89596659  0.85731967    -0.21330
C1416       C  0.56792394  0.87535409  0.83168007    -0.09370
C1417       C  0.58780318  0.84892018  0.82019438     0.29490
C1418       C  0.61928532  0.84315572  0.83420256    -0.21330
C1419       C  0.63164586  0.86403906  0.85950082    -0.09380
C1420       C  0.61193635  0.89069230  0.87082329     0.29490
F1421       F  0.62370419  0.91158720  0.89476835    -0.19910
H1422       H  0.56568744  0.91738432  0.86538613     0.17860
H1423       H  0.63431722  0.82261212  0.82518365     0.17860
F1424       F  0.57721544  0.82950638  0.79451887    -0.19900
C1425       C  0.61729107  0.02527077  0.87033342    -0.21330
C1426       C  0.63776727  0.04935017  0.85505244    -0.09370
C1427       C  0.62523963  0.06680670  0.82737234     0.29490
C1428       C  0.59379360  0.05879723  0.81411389    -0.21330
C1429       C  0.57363733  0.03421306  0.82886024    -0.09380
C1430       C  0.58532872  0.01793324  0.85758628     0.29490
F1431       F  0.56686249  0.99345295  0.87197677    -0.19910
H1432       H  0.62617469  0.01217305  0.89219556     0.17860
H1433       H  0.58544207  0.07125640  0.79166693     0.17860
F1434       F  0.64325923  0.09165455  0.81312508    -0.19900
C1435       C  0.31808640  0.86330072  0.80426018    -0.21330
C1436       C  0.34539664  0.87458958  0.82354585    -0.09370
C1437       C  0.34208358  0.87613946  0.85833623     0.29490
C1438       C  0.31152450  0.86752007  0.87319130    -0.21330
C1439       C  0.28410883  0.85708715  0.85353295    -0.09380
C1440       C  0.28759151  0.85531223  0.81894375     0.29490
F1441       F  0.26140691  0.84580461  0.79945401    -0.19910
H1442       H  0.31983842  0.86203573  0.77738792     0.17860
H1443       H  0.30888145  0.86953439  0.89993901     0.17860
F1444       F  0.36747023  0.88772767  0.87771952    -0.19900
C1445       C  0.56380001  0.29849890  0.83105575    -0.21330
C1446       C  0.54548811  0.32514950  0.81767245    -0.09370
C1447       C  0.52078146  0.34063160  0.83688549     0.29490
C1448       C  0.51467555  0.32973728  0.86923666    -0.21330
C1449       C  0.53246527  0.30265465  0.88259232    -0.09380
C1450       C  0.55717928  0.28702373  0.86315572     0.29490
F1451       F  0.57509783  0.26088624  0.87508449    -0.19910
H1452       H  0.58347987  0.28686130  0.81665441     0.17860
H1453       H  0.49603437  0.34260911  0.88387892     0.17860
F1454       F  0.50325410  0.36685664  0.82458954    -0.19900
C1455       C  0.39463049  0.32395821  0.17121024    -0.21330
C1456       C  0.36602092  0.30933652  0.18529161    -0.09370
C1457       C  0.34922477  0.28398427  0.16769658     0.29490
C1458       C  0.35979379  0.27489870  0.13575066    -0.21330
C1459       C  0.38741907  0.29075114  0.12084279    -0.09380
C1460       C  0.40526981  0.31489243  0.13930655     0.29490
F1461       F  0.43261922  0.33028586  0.12641431    -0.19910
H1462       H  0.40788934  0.34350345  0.18444808     0.17860
H1463       H  0.34588871  0.25587271  0.12241772     0.17860
F1464       F  0.32197851  0.26877538  0.18098700    -0.19900
C1465       C  0.57743562  0.28992618  0.12360692    -0.21330
C1466       C  0.54352307  0.28486747  0.11590709    -0.09370
C1467       C  0.52083918  0.28036560  0.14190089     0.29490
C1468       C  0.53088817  0.28655459  0.17455190    -0.21330
C1469       C  0.56257277  0.30092375  0.18148782    -0.09380
C1470       C  0.58712889  0.29658679  0.15653118     0.29490
F1471       F  0.62022786  0.29832979  0.16391609    -0.19910
H1472       H  0.59619358  0.28936848  0.10418082     0.17860
H1473       H  0.51302105  0.28083125  0.19370924     0.17860
F1474       F  0.48917421  0.26942652  0.13580379    -0.19900
C1475       C  0.39788671  0.32265050  0.82988788    -0.21330
C1476       C  0.36832847  0.31008643  0.81556729    -0.09370
C1477       C  0.34888036  0.28725432  0.83377056     0.29490
C1478       C  0.35800259  0.27870657  0.86642507    -0.21330
C1479       C  0.38657279  0.29287466  0.88154511    -0.09380
C1480       C  0.40677318  0.31449673  0.86258686     0.29490
F1481       F  0.43480500  0.32838367  0.87576801    -0.19910
H1482       H  0.41311966  0.34036057  0.81628859     0.17860
H1483       H  0.34220708  0.26162600  0.88017263     0.17860
F1484       F  0.32044524  0.27427597  0.82037873    -0.19900
C1485       C  0.61829343  0.08313153  0.93031777    -0.21330
C1486       C  0.63849616  0.09735300  0.90549513    -0.09370
C1487       C  0.62618744  0.12454902  0.88720472     0.29490
C1488       C  0.59455042  0.13764073  0.89412397    -0.21330
C1489       C  0.57433788  0.12367013  0.91904011    -0.09380
C1490       C  0.58638515  0.09610004  0.93706540     0.29490
F1491       F  0.56830901  0.08309213  0.96251753    -0.19910
H1492       H  0.62728234  0.06191042  0.94436907     0.17860
H1493       H  0.58613251  0.15944689  0.88061063     0.17860
F1494       F  0.64481774  0.13854246  0.86270603    -0.19900
C1495       C  0.33134707  0.13480966  0.10321867    -0.21330
C1496       C  0.35229469  0.12084524  0.07891403    -0.09370
C1497       C  0.34103233  0.09293787  0.06086150     0.29490
C1498       C  0.30839086  0.08089785  0.06543294    -0.21330
C1499       C  0.28698065  0.09582001  0.08877155    -0.09380
C1500       C  0.29922085  0.12204048  0.10861397     0.29490
F1501       F  0.27973959  0.13585349  0.13255850    -0.19910
H1502       H  0.33940442  0.15662578  0.11703772     0.17860
H1503       H  0.29969656  0.05991369  0.05075330     0.17860
F1504       F  0.36060573  0.07890482  0.03714328    -0.19900
C1505       C  0.60519628  0.07720832  0.07910141    -0.21330
C1506       C  0.63197156  0.09488527  0.09370855    -0.09370
C1507       C  0.62726464  0.12793018  0.10380073     0.29490
C1508       C  0.59662112  0.14349728  0.09798692    -0.21330
C1509       C  0.57038600  0.12631681  0.08192953    -0.09380
C1510       C  0.57447054  0.09260592  0.07356584     0.29490
F1511       F  0.55007009  0.07544289  0.05727356    -0.19910
H1512       H  0.60870371  0.05179996  0.07070997     0.17860
H1513       H  0.59398601  0.16962646  0.10429408     0.17860
F1514       F  0.65261254  0.14529985  0.11834365    -0.19900
C1515       C  0.33381448  0.13283883  0.89080690    -0.21330
C1516       C  0.35183733  0.12181425  0.91862038    -0.09370
C1517       C  0.33813711  0.09693923  0.93915919     0.29490
C1518       C  0.30599146  0.08454159  0.93276035    -0.21330
C1519       C  0.28750189  0.09650378  0.90560046    -0.09380
C1520       C  0.30201237  0.12003219  0.88404084     0.29490
F1521       F  0.28432759  0.13230836  0.85790356    -0.19910
H1522       H  0.34361388  0.15275770  0.87544055     0.17860
H1523       H  0.29515650  0.06619961  0.94934618     0.17860
F1524       F  0.35456846  0.08685075  0.96698093    -0.19900
C1525       C  0.82547830  0.50398200  0.35853006    -0.21330
C1526       C  0.84235682  0.52572017  0.33684999    -0.09370
C1527       C  0.82597772  0.55424195  0.32476287     0.29490
C1528       C  0.79381435  0.56167158  0.33579961    -0.21330
C1529       C  0.77804819  0.54094206  0.35908478    -0.09380
C1530       C  0.79343468  0.51149025  0.36953175     0.29490
F1531       F  0.77825848  0.49114213  0.39190182    -0.19910
H1532       H  0.83735992  0.48152203  0.36766590     0.17860
H1533       H  0.78181013  0.58443080  0.32758817     0.17860
F1534       F  0.84142793  0.57562355  0.30357482    -0.19900
C1535       C  0.09319380  0.35526178  0.32378225    -0.21330
C1536       C  0.07255174  0.37446267  0.34454252    -0.09370
C1537       C  0.08433528  0.38503700  0.37579766     0.29490
C1538       C  0.11682260  0.37768363  0.38542641    -0.21330
C1539       C  0.13765502  0.35926545  0.36435376    -0.09380
C1540       C  0.12582558  0.34787553  0.33354712     0.29490
F1541       F  0.14606374  0.33037534  0.31284808    -0.19910
H1542       H  0.08454996  0.34708318  0.29952900     0.17860
H1543       H  0.12610674  0.38679519  0.40912108     0.17860
F1544       F  0.06481625  0.40302822  0.39677826    -0.19900
C1545       C  0.09413604  0.55667898  0.32980910    -0.21330
C1546       C  0.07906089  0.52714260  0.34100928    -0.09370
C1547       C  0.09716666  0.50570421  0.36221383     0.29490
C1548       C  0.12932602  0.51434937  0.37273398    -0.21330
C1549       C  0.14368210  0.54451136  0.36270882    -0.09380
C1550       C  0.12621441  0.56541647  0.34062275     0.29490
F1551       F  0.13985407  0.59461926  0.33023564    -0.19910
H1552       H  0.08082482  0.57337146  0.31325869     0.17860
H1553       H  0.14260741  0.49811171  0.38976880     0.17860
F1554       F  0.08384569  0.47652016  0.37306899    -0.19900
C1555       C  0.83007215  0.39306266  0.36536435    -0.21330
C1556       C  0.84607270  0.37560155  0.33962533    -0.09370
C1557       C  0.82942150  0.34884353  0.32394924     0.29490
C1558       C  0.79700351  0.34027157  0.33362244    -0.21330
C1559       C  0.78109677  0.35812216  0.35905247    -0.09380
C1560       C  0.79777515  0.38450333  0.37494894     0.29490
F1561       F  0.78242988  0.40226747  0.39929473    -0.19910
H1562       H  0.84227106  0.41382764  0.37771027     0.17860
H1563       H  0.78402907  0.32013799  0.32102450     0.19180
F1564       F  0.84408230  0.33135561  0.29901166    -0.19900
C1565       C  0.01954538  0.33441805  0.14239729    -0.21330
C1566       C  0.04173521  0.34736867  0.16631611    -0.09370
C1567       C  0.06867282  0.32785175  0.17745062     0.29490
C1568       C  0.07358074  0.29596514  0.16446772    -0.21330
C1569       C  0.05134134  0.28297865  0.14058814    -0.09380
C1570       C  0.02395808  0.30219119  0.12999261     0.29490
F1571       F  0.00175396  0.28977915  0.10748773    -0.19910
H1572       H  0.99763075  0.34846550  0.13489788     0.17860
H1573       H  0.09471769  0.28129680  0.17288605     0.17860
F1574       F  0.08944574  0.33925232  0.20176545    -0.19900
C1575       C  0.07389152  0.62094228  0.16556464    -0.21330
C1576       C  0.05411231  0.63413379  0.13981719    -0.09370
C1577       C  0.02694140  0.61527187  0.12761143     0.29490
C1578       C  0.01985860  0.58373417  0.14098357    -0.21330
C1579       C  0.03932564  0.57092360  0.16717609    -0.09380
C1580       C  0.06626681  0.58992292  0.17949616     0.29490
F1581       F  0.08487450  0.57863126  0.20545884    -0.19910
H1582       H  0.09533415  0.63475498  0.17480385     0.17860
H1583       H  0.99823142  0.57002901  0.13198482     0.17860
F1584       F  0.00754113  0.62726587  0.10255842    -0.19900
C1585       C  0.89832052  0.33299578  0.13556457    -0.21330
C1586       C  0.88282188  0.34371515  0.16502246    -0.09370
C1587       C  0.85987367  0.32239327  0.18089891     0.29490
C1588       C  0.85303598  0.29082109  0.16800352    -0.21330
C1589       C  0.86926208  0.27950742  0.13928465    -0.09380
C1590       C  0.89165930  0.30102848  0.12278349     0.29490
F1591       F  0.90703171  0.29103483  0.09439813    -0.19910
H1592       H  0.91685766  0.34857856  0.12351176     0.17860
H1593       H  0.83463001  0.27537355  0.18031397     0.17860
F1594       F  0.84479573  0.33179395  0.20966491    -0.19900
C1595       C  0.02354837  0.74647244  0.85045628    -0.21330
C1596       C  0.99433190  0.73417236  0.83484530    -0.09370
C1597       C  0.99156427  0.69973686  0.82985249     0.29490
C1598       C  0.01461876  0.67805860  0.84371855    -0.21330
C1599       C  0.04380018  0.68928226  0.86050840    -0.09380
C1600       C  0.04884917  0.72438242  0.86169300     0.29490
F1601       F  0.07821334  0.73778539  0.87207384    -0.19910
H1602       H  0.02681691  0.77306363  0.85381193     0.17860
H1603       H  0.00870621  0.65191548  0.84097622     0.17860
F1604       F  0.96493236  0.68664099  0.81315774    -0.19900
C1605       C  0.78935381  0.70070073  0.91914946    -0.21330
C1606       C  0.82440135  0.69652838  0.91783043    -0.09370
C1607       C  0.84437689  0.71761422  0.93782061     0.29490
C1608       C  0.82971304  0.74165452  0.95836904    -0.21330
C1609       C  0.79483286  0.74256124  0.96299586    -0.09380
C1610       C  0.77460259  0.72259096  0.94210354     0.29490
F1611       F  0.74103876  0.72060210  0.94702238    -0.19910
H1612       H  0.77317345  0.68445730  0.90471508     0.17860
H1613       H  0.84582495  0.75564729  0.97508867     0.17860
F1614       F  0.87733517  0.71163551  0.94232706    -0.19900
C1615       C  0.91380135  0.70268396  0.88679498    -0.21330
C1616       C  0.88401401  0.69596609  0.86965251    -0.09370
C1617       C  0.87715923  0.71423248  0.84059293     0.29490
C1618       C  0.90211570  0.73443093  0.82635605    -0.21330
C1619       C  0.93231106  0.74127124  0.84359612    -0.09380
C1620       C  0.93571763  0.72746473  0.87588291     0.29490
F1621       F  0.96273808  0.73472234  0.89523836    -0.19910
H1622       H  0.92051778  0.68823371  0.90856134     0.17860
H1623       H  0.89807607  0.74232486  0.80109442     0.17860
F1624       F  0.84730462  0.71092454  0.82473175    -0.19900
C1625       C  0.82867298  0.35214081  0.67604355    -0.21330
C1626       C  0.84852295  0.37367256  0.65673270    -0.09370
C1627       C  0.83513504  0.38746808  0.62736498     0.29490
C1628       C  0.80226557  0.38076398  0.61823755    -0.21330
C1629       C  0.78224330  0.35987689  0.63781505    -0.09380
C1630       C  0.79557419  0.34529561  0.66668918     0.29490
F1631       F  0.77652881  0.32476829  0.68570585    -0.19910
H1632       H  0.83847107  0.34129982  0.69873414     0.17860
H1633       H  0.79211868  0.39206175  0.59590898     0.17860
F1634       F  0.85351186  0.40787613  0.60756607    -0.19900
C1635       C  0.09435485  0.50735973  0.64031892    -0.21330
C1636       C  0.07686250  0.52887404  0.66157850    -0.09370
C1637       C  0.09281093  0.55737694  0.67446128     0.29490
C1638       C  0.12541812  0.56483230  0.66477355    -0.21330
C1639       C  0.14207179  0.54400764  0.64215313    -0.09380
C1640       C  0.12693789  0.51457021  0.63099459     0.29490
F1641       F  0.14286468  0.49413215  0.60923595    -0.19910
H1642       H  0.08257420  0.48523606  0.63032745     0.17860
H1643       H  0.13720787  0.58756903  0.67352659     0.17860
F1644       F  0.07662214  0.57860673  0.69522228    -0.19900
C1645       C  0.09819904  0.35405407  0.67770146    -0.21330
C1646       C  0.08225374  0.38104251  0.66195971    -0.09370
C1647       C  0.09972515  0.39895750  0.63737979     0.29490
C1648       C  0.13221836  0.38980425  0.62862696    -0.21330
C1649       C  0.14734886  0.36181701  0.64307117    -0.09380
C1650       C  0.13037728  0.34426673  0.66813935     0.29490
F1651       F  0.14441424  0.31699286  0.68239993    -0.19910
H1652       H  0.08541644  0.33991384  0.69680153     0.17860
H1653       H  0.14483965  0.40322519  0.60889686     0.17860
F1654       F  0.08509595  0.42450155  0.62080201    -0.19900
C1655       C  0.82516944  0.55020945  0.67872025    -0.21330
C1656       C  0.84126466  0.52396014  0.66208806    -0.09370
C1657       C  0.82446604  0.50723393  0.63610477     0.29490
C1658       C  0.79272844  0.51772604  0.62614374    -0.21330
C1659       C  0.77762407  0.54513397  0.64159739    -0.09380
C1660       C  0.79359916  0.56083854  0.66852724     0.29490
F1661       F  0.77961587  0.58767841  0.68360523    -0.19910
H1662       H  0.83744763  0.56328317  0.69897167     0.17860
H1663       H  0.78064535  0.50565816  0.60515291     0.17860
F1664       F  0.83901738  0.48159732  0.61952602    -0.19900
C1665       C  0.06492536  0.59030169  0.81261871    -0.21330
C1666       C  0.04604109  0.56636521  0.83001319    -0.09370
C1667       C  0.03646035  0.57306643  0.86298168     0.29490
C1668       C  0.04406717  0.60397314  0.87740295    -0.21330
C1669       C  0.06205503  0.62826454  0.85953891    -0.09380
C1670       C  0.07294814  0.62094747  0.82721803     0.29490
F1671       F  0.08995713  0.64409208  0.80930616    -0.19910
H1672       H  0.07208060  0.58586109  0.78700665     0.17860
H1673       H  0.03483356  0.60954831  0.90209878     0.17860
F1674       F  0.01726938  0.55109634  0.88018455    -0.19900
C1675       C  0.87270260  0.59610942  0.81518862    -0.21330
C1676       C  0.88693273  0.57001592  0.83374479    -0.09370
C1677       C  0.89453337  0.57571302  0.86749797     0.29490
C1678       C  0.88863589  0.60728058  0.88175596    -0.21330
C1679       C  0.87456064  0.63339645  0.86278932    -0.09380
C1680       C  0.86670585  0.62722238  0.82928599     0.29490
F1681       F  0.85232502  0.65082815  0.80999733    -0.19910
H1682       H  0.86659414  0.59262759  0.78912188     0.17860
H1683       H  0.89467415  0.61131293  0.90774090     0.17860
F1684       F  0.90846232  0.55133812  0.88635487    -0.19900
C1685       C  0.07214444  0.29219794  0.82786484    -0.21330
C1686       C  0.05638840  0.28337286  0.85762657    -0.09370
C1687       C  0.03706391  0.30712560  0.87475793     0.29490
C1688       C  0.03305267  0.33915604  0.86169902    -0.21330
C1689       C  0.04783746  0.34757961  0.83120871    -0.09380
C1690       C  0.06820101  0.32414365  0.81486487     0.29490
F1691       F  0.08255405  0.33157710  0.78517301    -0.19910
H1692       H  0.08722577  0.27415311  0.81460416     0.17860
H1693       H  0.01629877  0.35638948  0.87402276     0.17860
F1694       F  0.02097297  0.29873289  0.90327027    -0.19900
C1695       C  0.82131536  0.72259038  0.08132306    -0.21330
C1696       C  0.83052440  0.68973881  0.07226364    -0.09370
C1697       C  0.82404185  0.68005218  0.03921262     0.29490
C1698       C  0.80561634  0.69988726  0.01792183    -0.21330
C1699       C  0.79772526  0.73328306  0.02531994    -0.09380
C1700       C  0.80734656  0.74491161  0.05743945     0.29490
F1701       F  0.80424555  0.77749737  0.06578255    -0.19910
H1702       H  0.82547767  0.73121935  0.10652520     0.17860
H1703       H  0.79886412  0.68869343  0.99437139     0.17860
F1704       F  0.83496892  0.65057654  0.02691994    -0.19900
C1705       C  0.84922185  0.61701935  0.16075266    -0.21330
C1706       C  0.87246493  0.63149691  0.13880822    -0.09370
C1707       C  0.90169108  0.61389104  0.13057496     0.29490
C1708       C  0.90711019  0.58199154  0.14348660    -0.21330
C1709       C  0.88397738  0.56767628  0.16553433    -0.09380
C1710       C  0.85510118  0.58549516  0.17429585     0.29490
F1711       F  0.83313598  0.57274072  0.19668315    -0.19910
H1712       H  0.82665835  0.63036664  0.16743421     0.17860
H1713       H  0.93025777  0.56919172  0.13771134     0.17860
F1714       F  0.92468617  0.62746487  0.10973836    -0.19900
C1715       C  0.90000228  0.29743187  0.87524450    -0.21330
C1716       C  0.87509249  0.27672006  0.86147341    -0.09370
C1717       C  0.85653795  0.28820246  0.83399784     0.29490
C1718       C  0.86321763  0.31948874  0.82032161    -0.21330
C1719       C  0.88778417  0.34038622  0.83424224    -0.09380
C1720       C  0.90612051  0.32920974  0.86198875     0.29490
F1721       F  0.93095960  0.34827194  0.87522211    -0.19910
H1722       H  0.91405963  0.28925222  0.89682592     0.17860
H1723       H  0.84942602  0.32733266  0.79842822     0.17860
F1724       F  0.83119280  0.26963361  0.82105489    -0.19900
C1725       C  0.57824701  0.37632959  0.15848067    -0.21330
C1726       C  0.60231334  0.36356878  0.18061555    -0.09370
C1727       C  0.63634283  0.36414548  0.17133573     0.29490
C1728       C  0.64540598  0.37374646  0.13921596    -0.21330
C1729       C  0.62104348  0.38443985  0.11647852    -0.09380
C1730       C  0.58750818  0.38692560  0.12672024     0.29490
F1731       F  0.56345831  0.39803212  0.10553296    -0.19910
H1732       H  0.55205954  0.37692770  0.16548743     0.17860
H1733       H  0.67150596  0.37248546  0.13198001     0.17860
F1734       F  0.66056062  0.35248849  0.19185889    -0.19900
C1735       C  0.58663116  0.52088971  0.16621385    -0.21330
C1736       C  0.59708268  0.55113685  0.18028463    -0.09370
C1737       C  0.61832215  0.57239718  0.16219168     0.29490
C1738       C  0.62859808  0.56338822  0.13015864    -0.21330
C1739       C  0.61786590  0.53311964  0.11596833    -0.09380
C1740       C  0.59686074  0.51184632  0.13442307     0.29490
F1741       F  0.58688318  0.48181583  0.12227427    -0.19910
H1742       H  0.57068110  0.50411277  0.18017969     0.17860
H1743       H  0.64503610  0.57996586  0.11653119     0.17860
F1744       F  0.62967243  0.60126973  0.17583700    -0.19900
C1745       C  0.62791197  0.56539819  0.83379407    -0.21330
C1746       C  0.59876186  0.55091177  0.82072273    -0.09370
C1747       C  0.58025935  0.52811480  0.83975477     0.29490
C1748       C  0.59038300  0.52053520  0.87189238    -0.21330
C1749       C  0.61928967  0.53526637  0.88542926    -0.09380
C1750       C  0.63811974  0.55782121  0.86615574     0.29490
F1751       F  0.66654242  0.57208013  0.87822663    -0.19910
H1752       H  0.64243263  0.58270715  0.81899031     0.17860
H1753       H  0.57570555  0.50279810  0.88603862     0.17860
F1754       F  0.55270572  0.51287463  0.82686932    -0.19900
C1755       C  0.62066664  0.35523042  0.82929146    -0.21330
C1756       C  0.59471885  0.37454897  0.81559193    -0.09370
C1757       C  0.58172894  0.40119548  0.83407992     0.29490
C1758       C  0.59375949  0.40778858  0.86596336    -0.21330
C1759       C  0.61877851  0.38782367  0.88036059    -0.09380
C1760       C  0.63253289  0.36159603  0.86156309     0.29490
F1761       F  0.65662276  0.34158786  0.87455939    -0.19910
H1762       H  0.63069077  0.33433972  0.81545594     0.17860
H1763       H  0.58281605  0.42829579  0.87967120     0.17860
F1764       F  0.55613692  0.41986808  0.82219144    -0.19900
C1765       C  0.83030192  0.29698859  0.06389928    -0.21330
C1766       C  0.81824609  0.27946228  0.09165286    -0.09370
C1767       C  0.79429851  0.29461504  0.11229173     0.29490
C1768       C  0.78199107  0.32630505  0.10468149    -0.21330
C1769       C  0.79382615  0.34376997  0.07686274    -0.09380
C1770       C  0.81830580  0.32898235  0.05655758     0.29490
F1771       F  0.82893425  0.34450590  0.02848345    -0.19910
H1772       H  0.84907591  0.28583255  0.04799679     0.17860
H1773       H  0.76235441  0.33686313  0.11995340     0.17860
F1774       F  0.78266394  0.27866377  0.13969884    -0.19900
C1775       C  0.80132888  0.61708276  0.88604655    -0.21330
C1776       C  0.82175318  0.63354575  0.90941928    -0.09370
C1777       C  0.82934638  0.61766803  0.93962642     0.29490
C1778       C  0.81649015  0.58590133  0.94642573    -0.21330
C1779       C  0.79562322  0.56966316  0.92331403    -0.09380
C1780       C  0.78810518  0.58549424  0.89304385     0.29490
F1781       F  0.76730596  0.57069867  0.87066028    -0.19910
H1782       H  0.79562359  0.62883602  0.86245172     0.17860
H1783       H  0.82152925  0.57461864  0.97041124     0.17860
F1784       F  0.84961473  0.63278094  0.96224895    -0.19900
C1785       C  0.79234690  0.62437194  0.10187385    -0.21330
C1786       C  0.82491439  0.62952404  0.09022726    -0.09370
C1787       C  0.84226448  0.60276799  0.07530078     0.29490
C1788       C  0.82667848  0.57178059  0.07120830    -0.21330
C1789       C  0.79356538  0.56706059  0.08173481    -0.09380
C1790       C  0.77684282  0.59340232  0.09794685     0.29490
F1791       F  0.74485447  0.58959416  0.10875324    -0.19910
H1792       H  0.77898598  0.64442813  0.11404597     0.17860
H1793       H  0.83971628  0.55225389  0.05789658     0.17860
F1794       F  0.87369205  0.60722413  0.06324473    -0.19900
C1795       C  0.82554043  0.33821436  0.93493317    -0.21330
C1796       C  0.79557549  0.34711791  0.91883723    -0.09370
C1797       C  0.78137348  0.32492546  0.89556399     0.29490
C1798       C  0.79599223  0.29380400  0.88969055    -0.21330
C1799       C  0.82498530  0.28421900  0.90695131    -0.09380
C1800       C  0.84000866  0.30687437  0.92930969     0.29490
F1801       F  0.86745872  0.29779867  0.94711591    -0.19910
H1802       H  0.83633226  0.35443128  0.95370361     0.17860
H1803       H  0.78410135  0.27664761  0.87248011     0.17860
F1804       F  0.75236266  0.33276411  0.87970433    -0.19900
C1805       C  0.34188969  0.37996019  0.83805501    -0.21330
C1806       C  0.32099673  0.35900639  0.81927838    -0.09370
C1807       C  0.29099957  0.34707895  0.83283440     0.29490
C1808       C  0.28240952  0.35557861  0.86538554    -0.21330
C1809       C  0.30351458  0.37635860  0.88438458    -0.09380
C1810       C  0.33346206  0.38840353  0.87046065     0.29490
F1811       F  0.35470209  0.40824392  0.88804285    -0.19910
H1812       H  0.36495038  0.38949135  0.82749865     0.17860
H1813       H  0.25905908  0.34632854  0.87552445     0.17860
F1814       F  0.27025007  0.32733502  0.81460192    -0.19900
C1815       C  0.29151816  0.55518452  0.13295329    -0.21330
C1816       C  0.30661615  0.52778252  0.11726707    -0.09370
C1817       C  0.33064372  0.50904304  0.13489297     0.29490
C1818       C  0.33942007  0.51780047  0.16739769    -0.21330
C1819       C  0.32504970  0.54572636  0.18259891    -0.09380
C1820       C  0.30072709  0.56422889  0.16526996     0.29490
F1821       F  0.28626872  0.59129577  0.17951173    -0.19910
H1822       H  0.27283194  0.56990336  0.12007622     0.17860
H1823       H  0.35837144  0.50350705  0.18039271     0.17860
F1824       F  0.34606313  0.48253392  0.12070485    -0.19900
C1825       C  0.28527471  0.34929903  0.12986253    -0.21330
C1826       C  0.30404414  0.37460823  0.11444199    -0.09370
C1827       C  0.32997499  0.39046770  0.13220499     0.29490
C1828       C  0.33605044  0.38194007  0.16522171    -0.21330
C1829       C  0.31706665  0.35693165  0.18057109    -0.09380
C1830       C  0.29185710  0.34032927  0.16267721     0.29490
F1831       F  0.27310424  0.31623263  0.17733861    -0.19910
H1832       H  0.26516373  0.33672747  0.11670813     0.17860
H1833       H  0.35606488  0.39429420  0.17874978     0.17860
F1834       F  0.34945580  0.41412667  0.11782107    -0.19900
C1835       C  0.28542546  0.54600649  0.86098918    -0.21330
C1836       C  0.30486796  0.52424629  0.88049318    -0.09370
C1837       C  0.33345482  0.50944435  0.86627623     0.29490
C1838       C  0.34282869  0.51712423  0.83375731    -0.21330
C1839       C  0.32411357  0.53971774  0.81477046    -0.09380
C1840       C  0.29487991  0.55360772  0.82829654     0.29490
F1841       F  0.27629832  0.57549455  0.81035055    -0.19910
H1842       H  0.26311026  0.55742626  0.87114520     0.17860
H1843       H  0.36574408  0.50666740  0.82392843     0.17860
F1844       F  0.35313651  0.48838082  0.88405394    -0.19900
C1845       C  0.09118693  0.29546532  0.93555516    -0.21330
C1846       C  0.10295753  0.27833972  0.90736134    -0.09370
C1847       C  0.12749698  0.29365501  0.88740726     0.29490
C1848       C  0.14006858  0.32515670  0.89568978    -0.21330
C1849       C  0.12804644  0.34248557  0.92353135    -0.09380
C1850       C  0.10341658  0.32738768  0.94350457     0.29490
F1851       F  0.09254304  0.34268590  0.97160986    -0.19910
H1852       H  0.07202307  0.28429463  0.95101643     0.17860
H1853       H  0.15989628  0.33582313  0.88069569     0.17860
F1854       F  0.13897825  0.27833790  0.85957506    -0.19900
C1855       C  0.13374319  0.62070443  0.10999537    -0.21330
C1856       C  0.10410794  0.63005680  0.09374429    -0.09370
C1857       C  0.08852519  0.60743160  0.07176053     0.29490
C1858       C  0.10289593  0.57618307  0.06569365    -0.21330
C1859       C  0.13335064  0.56740497  0.08088218    -0.09380
C1860       C  0.14833954  0.58969950  0.10356472     0.29490
F1861       F  0.17788973  0.58197160  0.11845950    -0.19910
H1862       H  0.14594985  0.63784000  0.12701173     0.17860
H1863       H  0.09151186  0.55987795  0.04734445     0.17860
F1864       F  0.06040046  0.61634178  0.05494096    -0.19900
C1865       C  0.09889629  0.34143063  0.07135854    -0.21330
C1866       C  0.13138991  0.34706254  0.08344864    -0.09370
C1867       C  0.14741688  0.32189517  0.10202974     0.29490
C1868       C  0.13175357  0.29111977  0.10706171    -0.21330
C1869       C  0.09987211  0.28498245  0.09378619    -0.09380
C1870       C  0.08333935  0.31056806  0.07616869     0.29490
F1871       F  0.05283140  0.30501096  0.06219224    -0.19910
H1872       H  0.08652588  0.35997508  0.05611168     0.17860
H1873       H  0.14458445  0.27188345  0.12101854     0.17860
F1874       F  0.17891913  0.32660176  0.11403920    -0.19900
C1875       C  0.09685203  0.61586045  0.93673934    -0.21330
C1876       C  0.10896080  0.63383602  0.90928621    -0.09370
C1877       C  0.13365159  0.61948285  0.88899597     0.29490
C1878       C  0.14588506  0.58764058  0.89607201    -0.21330
C1879       C  0.13326367  0.56929644  0.92302030    -0.09380
C1880       C  0.10865637  0.58368308  0.94344110     0.29490
F1881       F  0.09737147  0.56738124  0.97081199    -0.19910
H1882       H  0.07752654  0.62645981  0.95236674     0.17860
H1883       H  0.16580434  0.57747971  0.88089277     0.17860
F1884       F  0.14550366  0.63615990  0.86210422    -0.19900
C1885       C  0.74869138  0.00282468  0.13051884    -0.21330
C1886       C  0.74303664  0.98663385  0.16104800    -0.09370
C1887       C  0.71446863  0.99498674  0.17913403     0.29490
C1888       C  0.69363169  0.02042179  0.16842456    -0.21330
C1889       C  0.69640336  0.03427524  0.13612985    -0.09380
C1890       C  0.72420387  0.02412353  0.11682213     0.29490
F1891       F  0.72615800  0.03096365  0.08392568    -0.19910
H1892       H  0.77032310  0.99634744  0.11570982     0.17860
H1893       H  0.67321311  0.02678774  0.18483269     0.17860
F1894       F  0.70533166  0.97698442  0.20628089    -0.19900
C1895       C  0.73182956  0.89988547  0.17867669    -0.21330
C1896       C  0.74658062  0.92387748  0.15759199    -0.09370
C1897       C  0.73951203  0.92080316  0.12317365     0.29490
C1898       C  0.71557710  0.89795648  0.11140417    -0.21330
C1899       C  0.70069466  0.87444592  0.13255692    -0.09380
C1900       C  0.71028377  0.87495007  0.16628791     0.29490
F1901       F  0.69658310  0.85294719  0.18799335    -0.19910
H1902       H  0.73447683  0.90143110  0.20514647     0.17860
H1903       H  0.70702092  0.90078196  0.08617072     0.17860
F1904       F  0.75418757  0.94113623  0.10063000    -0.19900
C1905       C  0.82889441  0.91474374  0.20842199    -0.21330
C1906       C  0.79728085  0.92809414  0.21461631    -0.09370
C1907       C  0.78098614  0.91921257  0.24415417     0.29490
C1908       C  0.79509823  0.89593101  0.26575244    -0.21330
C1909       C  0.82793239  0.88350189  0.26107536    -0.09380
C1910       C  0.84496226  0.89487236  0.23223523     0.29490
F1911       F  0.87824263  0.89223336  0.22877886    -0.19910
H1912       H  0.84280340  0.92274317  0.18675934     0.17860
H1913       H  0.78048858  0.88963567  0.28736693     0.17860
F1914       F  0.75171932  0.93407020  0.25282909    -0.19900
C1915       C  0.77635793  0.00884733  0.23194403    -0.21330
C1916       C  0.79799521  0.99033794  0.21170305    -0.09370
C1917       C  0.83264765  0.99803372  0.21368346     0.29490
C1918       C  0.84503457  0.02099950  0.23747432    -0.21330
C1919       C  0.82304101  0.03856876  0.25840027    -0.09380
C1920       C  0.78832509  0.03323591  0.25381896     0.29490
F1921       F  0.76554183  0.04978665  0.27253602    -0.19910
H1922       H  0.75017457  0.00289773  0.23322886     0.17860
H1923       H  0.87184836  0.02390998  0.24047914     0.17860
F1924       F  0.85487547  0.98208897  0.19385802    -0.19900
C1925       C  0.92382873  0.71438935  0.17706928    -0.21330
C1926       C  0.93272729  0.74161501  0.15735514    -0.09370
C1927       C  0.91648387  0.74572133  0.12647885     0.29490
C1928       C  0.89442719  0.72090758  0.11439432    -0.21330
C1929       C  0.88498209  0.69362942  0.13453946    -0.09380
C1930       C  0.89879781  0.69238059  0.16717461     0.29490
F1931       F  0.88932461  0.66909018  0.18975299    -0.19910
H1932       H  0.93604187  0.71059872  0.20091196     0.17860
H1933       H  0.88614363  0.72267821  0.08890807     0.17860
F1934       F  0.92301192  0.77282280  0.10739620    -0.19900
C1935       C  0.01583951  0.72516806  0.17799231    -0.21330
C1936       C  0.99508940  0.74210214  0.15528538    -0.09370
C1937       C  0.00048802  0.73621281  0.12092895     0.29490
C1938       C  0.02387400  0.71242484  0.11008599    -0.21330
C1939       C  0.04440307  0.69569101  0.13296352    -0.09380
C1940       C  0.04084716  0.70336422  0.16704451     0.29490
F1941       F  0.06043104  0.68829999  0.19018723    -0.19910
H1942       H  0.01171983  0.72720971  0.20448247     0.17860
H1943       H  0.02561626  0.70668194  0.08380330     0.17860
F1944       F  0.98239828  0.75253593  0.09756858    -0.19900
C1945       C  0.02427501  0.80470815  0.20228471    -0.21330
C1946       C  0.99492868  0.78879123  0.21367563    -0.09370
C1947       C  0.99234413  0.78182805  0.24761747     0.29490
C1948       C  0.01551775  0.79444281  0.27001259    -0.21330
C1949       C  0.04389041  0.81335805  0.26000445    -0.09380
C1950       C  0.04922932  0.81569670  0.22510060     0.29490
F1951       F  0.07848454  0.82716787  0.21258331    -0.19910
H1952       H  0.02759014  0.80911255  0.17592534     0.17860
H1953       H  0.00987964  0.78931915  0.29575357     0.17860
F1954       F  0.96569529  0.76449187  0.25964124    -0.19900
C1955       C  0.90229310  0.78518512  0.21469074    -0.21330
C1956       C  0.93319898  0.80100561  0.20720334    -0.09370
C1957       C  0.93838314  0.83286890  0.22162223     0.29490
C1958       C  0.91722980  0.84492786  0.24653899    -0.21330
C1959       C  0.88673526  0.82918746  0.25396176    -0.09380
C1960       C  0.87924940  0.79931564  0.23719871     0.29490
F1961       F  0.85109305  0.78201144  0.24506311    -0.19910
H1962       H  0.89602986  0.76095556  0.20555711     0.17860
H1963       H  0.92464217  0.86718644  0.25995822     0.17860
F1964       F  0.96602030  0.85113025  0.21408086    -0.19900
C1965       C  0.09308389  0.92401212  0.77720099    -0.21330
C1966       C  0.12776734  0.92494343  0.78356732    -0.09370
C1967       C  0.14799952  0.90018898  0.76875430     0.29490
C1968       C  0.13349989  0.87543822  0.74851781    -0.21330
C1969       C  0.09927085  0.87657151  0.74005067    -0.09380
C1970       C  0.07962073  0.90209050  0.75373217     0.29490
F1971       F  0.04934346  0.90965825  0.74051443    -0.19910
H1972       H  0.07720692  0.94379983  0.78652085     0.17860
H1973       H  0.14967979  0.85723004  0.73691890     0.17860
F1974       F  0.18191137  0.90206928  0.77045992    -0.19900
C1975       C  0.11470544  0.01608487  0.78835303    -0.21330
C1976       C  0.12988997  0.98695952  0.77552769    -0.09370
C1977       C  0.13061101  0.98331054  0.74076057     0.29490
C1978       C  0.11393318  0.00534194  0.72009133    -0.21330
C1979       C  0.09915556  0.03508420  0.73184938    -0.09380
C1980       C  0.10127666  0.04080550  0.76673176     0.29490
F1981       F  0.09220147  0.07039466  0.78014036    -0.19910
H1982       H  0.11383282  0.02007754  0.81497372     0.17860
H1983       H  0.11370151  0.99867263  0.69404294     0.17860
F1984       F  0.14685538  0.95743160  0.72620686    -0.19900
C1985       C  0.18760397  0.01896036  0.81764652    -0.21330
C1986       C  0.17528343  0.99262584  0.83731666    -0.09370
C1987       C  0.18221947  0.99349454  0.87182293     0.29490
C1988       C  0.20644942  0.01538374  0.88435314    -0.21330
C1989       C  0.21901026  0.04148203  0.86481076    -0.09380
C1990       C  0.20752969  0.04415581  0.83171372     0.29490
F1991       F  0.21811165  0.06937809  0.81193418    -0.19910
H1992       H  0.18430785  0.01894320  0.79095191     0.17860
H1993       H  0.21605989  0.01145143  0.90930154     0.17860
F1994       F  0.16997661  0.96944668  0.89225952    -0.19900
C1995       C  0.23763531  0.90984220  0.85837053    -0.21330
C1996       C  0.22527137  0.87716688  0.86228909    -0.09370
C1997       C  0.19147097  0.87164950  0.85287083     0.29490
C1998       C  0.17082827  0.89837470  0.84249003    -0.21330
C1999       C  0.18464652  0.93004512  0.83546117    -0.09380
C2000       C  0.21909782  0.93447496  0.84256324     0.29490
F2001       F  0.23565349  0.96270217  0.83367944    -0.19910
H2002       H  0.26326521  0.91596805  0.86479527     0.17860
H2003       H  0.14453835  0.89352217  0.83808452     0.17860
F2004       F  0.17905006  0.84048084  0.84998786    -0.19900
C2005       C  0.01354529  0.14001591  0.76734271    -0.21330
C2006       C  0.99409014  0.11726313  0.78557345    -0.09370
C2007       C  0.00134313  0.08290254  0.78186046     0.29490
C2008       C  0.02472266  0.07176412  0.75815217    -0.21330
C2009       C  0.04292536  0.09462490  0.73886313    -0.09380
C2010       C  0.03804145  0.12898643  0.74498763     0.29490
F2011       F  0.05547358  0.15219895  0.72756981    -0.19910
H2012       H  0.00831465  0.16644162  0.76855710     0.17860
H2013       H  0.02755021  0.04526003  0.75390776     0.17860
F2014       F  0.98454778  0.05981081  0.79993719    -0.19900
C2015       C  0.91721951  0.08455074  0.78691567    -0.21330
C2016       C  0.93189373  0.11616976  0.78194329    -0.09370
C2017       C  0.92448466  0.13289484  0.75231427     0.29490
C2018       C  0.89969700  0.12123119  0.73103644    -0.21330
C2019       C  0.88537472  0.08913706  0.73458717    -0.09380
C2020       C  0.89586412  0.07025367  0.76251666     0.29490
F2021       F  0.88848246  0.03739955  0.76502873    -0.19910
H2022       H  0.92430466  0.06984233  0.80834709     0.17860
H2023       H  0.89348097  0.13724036  0.71031715     0.17860
F2024       F  0.94101898  0.16139986  0.74411929    -0.19900
C2025       C  0.92889135  0.17635282  0.87408843    -0.21330
C2026       C  0.92721234  0.16794938  0.83978061    -0.09370
C2027       C  0.90014581  0.18175857  0.82155376     0.29490
C2028       C  0.87750958  0.20378265  0.83641467    -0.21330
C2029       C  0.88168886  0.21478899  0.86925041    -0.09380
C2030       C  0.90726105  0.20019684  0.88837169     0.29490
F2031       F  0.91292584  0.21077893  0.91998132    -0.19910
H2032       H  0.94950872  0.16715487  0.88905282     0.17860
H2033       H  0.85829593  0.21474773  0.82092460     0.17860
F2034       F  0.89758332  0.17887059  0.78835476    -0.19900
C2035       C  0.00891755  0.23310446  0.84102143    -0.21330
C2036       C  0.03823062  0.22218950  0.85761405    -0.09370
C2037       C  0.04374952  0.18715284  0.85820964     0.29490
C2038       C  0.01877711  0.16474740  0.84665001    -0.21330
C2039       C  0.98917245  0.17664672  0.83170999    -0.09380
C2040       C  0.98584534  0.21112406  0.82732065     0.29490
F2041       F  0.95931309  0.22396922  0.81045878    -0.19910
H2042       H  0.00299414  0.25921972  0.83829342     0.17860
H2043       H  0.02259542  0.13817614  0.84935512     0.17860
F2044       F  0.07336143  0.17407402  0.86805400    -0.19900
C2045       C  0.70132165  0.11483223  0.02042297    -0.21330
C2046       C  0.73521279  0.12122806  0.02742489    -0.09370
C2047       C  0.74716952  0.11182944  0.05941356     0.29490
C2048       C  0.72481643  0.09864708  0.08353868    -0.21330
C2049       C  0.69164656  0.08986437  0.07469249    -0.09380
C2050       C  0.68128012  0.09686199  0.04184731     0.29490
F2051       F  0.65125789  0.08647560  0.02975325    -0.19910
H2052       H  0.69029822  0.12186734  0.99681061     0.17860
H2053       H  0.73377157  0.09414511  0.10857809     0.17860
F2054       F  0.78013717  0.11416164  0.06727717    -0.19900
C2055       C  0.73978118  0.08632922  0.96249103    -0.21330
C2056       C  0.74506851  0.12098948  0.96476933    -0.09370
C2057       C  0.72974288  0.14123338  0.94028290     0.29490
C2058       C  0.70984358  0.12691617  0.91503142    -0.21330
C2059       C  0.70129426  0.09280232  0.91550034    -0.09380
C2060       C  0.71563206  0.07310923  0.94079253     0.29490
F2061       F  0.70182866  0.04354211  0.94936865    -0.19910
H2062       H  0.74938190  0.07030163  0.98199423     0.17860
H2063       H  0.69783901  0.14336766  0.89736051     0.17860
F2064       F  0.72980373  0.17490602  0.94305419    -0.19900
C2065       C  0.77282958  0.18768997  0.05757056    -0.21330
C2066       C  0.79368387  0.17224457  0.03400722    -0.09370
C2067       C  0.82849536  0.17763153  0.03651662     0.29490
C2068       C  0.84152778  0.20075253  0.05914395    -0.21330
C2069       C  0.82097521  0.21683030  0.08236346    -0.09380
C2070       C  0.78635733  0.20918969  0.08186655     0.29490
F2071       F  0.76507730  0.22467178  0.10305823    -0.19910
H2072       H  0.74588026  0.18514448  0.05566922     0.17860
H2073       H  0.86706247  0.20838253  0.05574135     0.17860
F2074       F  0.84963962  0.16350233  0.01417866    -0.19900
C2075       C  0.80130937  0.23459051  0.95086278    -0.21330
C2076       C  0.82246203  0.22289372  0.92508390    -0.09370
C2077       C  0.82556821  0.18755920  0.92233206     0.29490
C2078       C  0.81127794  0.16620662  0.94645168    -0.21330
C2079       C  0.79180412  0.17912259  0.97246946    -0.09380
C2080       C  0.78579782  0.21342626  0.97322809     0.29490
F2081       F  0.76507073  0.22688601  0.99635995    -0.19910
H2082       H  0.79620324  0.26071309  0.95469094     0.17860
H2083       H  0.81552710  0.13960139  0.94487029     0.17860
F2084       F  0.84062398  0.17272081  0.89622919    -0.19900
C2085       C  0.12528824  0.68147690  0.05038939    -0.21330
C2086       C  0.10419437  0.69180309  0.07676829    -0.09370
C2087       C  0.09967361  0.72692711  0.07995763     0.29490
C2088       C  0.11110757  0.74908636  0.05486242    -0.21330
C2089       C  0.13001573  0.73736568  0.02774689    -0.09380
C2090       C  0.13871842  0.70354252  0.02746548     0.29490
F2091       F  0.16018656  0.69127305  0.00439695    -0.19910
H2092       H  0.13207886  0.65572993  0.04659459     0.17860
H2093       H  0.10540853  0.77539362  0.05676850     0.17860
F2094       F  0.08650626  0.74068102  0.10768673    -0.19900
C2095       C  0.09174266  0.73536193  0.96273097    -0.21330
C2096       C  0.12640937  0.74177969  0.96620044    -0.09370
C2097       C  0.14850540  0.72555647  0.94425139     0.29490
C2098       C  0.13621504  0.70324017  0.92022838    -0.21330
C2099       C  0.10179759  0.69549287  0.91797198    -0.09380
C2100       C  0.07955032  0.71221692  0.93926561     0.29490
F2101       F  0.04644218  0.70442260  0.93907458    -0.19910
H2102       H  0.07426643  0.74657758  0.97998814     0.17860
H2103       H  0.15403026  0.69012109  0.90475700     0.17860
F2104       F  0.18216645  0.72898222  0.94796508    -0.19900
C2105       C  0.19252597  0.77358552  0.05169061    -0.21330
C2106       C  0.17382976  0.79653326  0.03302993    -0.09370
C2107       C  0.17507713  0.83048380  0.04273529     0.29490
C2108       C  0.19873888  0.84140699  0.06660183    -0.21330
C2109       C  0.21903470  0.81830126  0.08360945    -0.09380
C2110       C  0.21345699  0.78406547  0.07750441     0.29490
F2111       F  0.23059644  0.76044263  0.09458919    -0.19910
H2112       H  0.19302623  0.74751739  0.04483414     0.17860
H2113       H  0.20252057  0.86788689  0.07030613     0.17860
F2114       F  0.15728243  0.85355307  0.02549146    -0.19900
C2115       C  0.18889622  0.80551285  0.90946412    -0.21330
C2116       C  0.21930097  0.82242434  0.91499821    -0.09370
C2117       C  0.22606167  0.83370313  0.94731480     0.29490
C2118       C  0.20697834  0.82181662  0.97394373    -0.21330
C2119       C  0.17682631  0.80328597  0.96922146    -0.09380
C2120       C  0.16610517  0.80020525  0.93566120     0.29490
F2121       F  0.13396497  0.79291111  0.92755551    -0.19910
H2122       H  0.18282747  0.79565299  0.88517108     0.17860
H2123       H  0.21798204  0.82572345  0.99812568     0.17860
F2124       F  0.25499883  0.85040195  0.95391225    -0.19900
C2125       C  0.22485118  0.49438484  0.67701628    -0.21330
C2126       C  0.24949511  0.48340642  0.65494299    -0.09370
C2127       C  0.25145966  0.49848192  0.62330511     0.29490
C2128       C  0.22711957  0.52188354  0.61326445    -0.21330
C2129       C  0.20344935  0.53422200  0.63614742    -0.09380
C2130       C  0.20433384  0.52114675  0.66895136     0.29490
F2131       F  0.18410074  0.53312617  0.69326974    -0.19910
H2132       H  0.22279369  0.48322127  0.70149130     0.17860
H2133       H  0.22665654  0.52980191  0.58757727     0.17860
F2134       F  0.27645576  0.49047242  0.60201431    -0.19900
C2135       C  0.23489467  0.40241744  0.67907709    -0.21330
C2136       C  0.25170142  0.42155586  0.65501763    -0.09370
C2137       C  0.24717745  0.41310592  0.62121727     0.29490
C2138       C  0.22452536  0.38809156  0.61196152    -0.21330
C2139       C  0.20873044  0.36844115  0.63616853    -0.09380
C2140       C  0.21536553  0.37509474  0.66993361     0.29490
F2141       F  0.20033709  0.35704212  0.69425055    -0.19910
H2142       H  0.23562745  0.40927082  0.70509162     0.17860
H2143       H  0.21864514  0.38465116  0.58585331     0.17860
F2144       F  0.26345436  0.42978893  0.59688732    -0.19900
C2145       C  0.31213198  0.39339150  0.70007859    -0.21330
C2146       C  0.29826660  0.42359479  0.71153329    -0.09370
C2147       C  0.29086049  0.42639427  0.74543691     0.29490
C2148       C  0.30130739  0.40227937  0.76777179    -0.21330
C2149       C  0.31811354  0.37284238  0.75761770    -0.09380
C2150       C  0.32051043  0.36759303  0.72271570     0.29490
F2151       F  0.32956134  0.33766721  0.71005441    -0.19910
H2152       H  0.31640691  0.38979400  0.67373198     0.17860
H2153       H  0.29625162  0.40788577  0.79355374     0.17860
F2154       F  0.27481501  0.45372765  0.75743391    -0.19900
C2155       C  0.34863219  0.50214114  0.74841077    -0.21330
C2156       C  0.33117435  0.53196847  0.75307895    -0.09370
C2157       C  0.30546382  0.54021206  0.73095318     0.29490
C2158       C  0.29536934  0.51736133  0.70642798    -0.21330
C2159       C  0.31019800  0.48529427  0.70405536    -0.09380
C2160       C  0.34000213  0.48045645  0.72268295     0.29490
F2161       F  0.35917455  0.45288797  0.71824067    -0.19910
H2162       H  0.36946365  0.49585589  0.76453586     0.17860
H2163       H  0.27556903  0.52565215  0.69067792     0.17860
F2164       F  0.28871186  0.56943918  0.73436338    -0.19900
C2165       C  0.43949131  0.22202440  0.62339477    -0.21330
C2166       C  0.43127998  0.24646367  0.64738993    -0.09370
C2167       C  0.39646347  0.25207249  0.65229530     0.29490
C2168       C  0.37295058  0.22777350  0.64242924    -0.21330
C2169       C  0.38343243  0.19943971  0.62494149    -0.09380
C2170       C  0.41643216  0.19823317  0.61332908     0.29490
F2171       F  0.42669545  0.17383122  0.59234486    -0.19910
H2172       H  0.46471202  0.21933500  0.61398472     0.17860
H2173       H  0.34673848  0.23097036  0.64853289     0.17860
F2174       F  0.38435543  0.28143864  0.66352919    -0.19900
C2175       C  0.52030178  0.25420277  0.64689297    -0.21330
C2176       C  0.49250244  0.24232764  0.66467226    -0.09370
C2177       C  0.49292857  0.20966086  0.67657905     0.29490
C2178       C  0.51761211  0.18783318  0.66641710    -0.21330
C2179       C  0.54317937  0.19752575  0.64393113    -0.09380
C2180       C  0.54636911  0.23227316  0.63791617     0.29490
F2181       F  0.57467703  0.24570383  0.62522976    -0.19910
H2182       H  0.52145871  0.28010977  0.63944831     0.17860
H2183       H  0.51481177  0.16256317  0.67522989     0.17860
F2184       F  0.46731614  0.19781843  0.69541810    -0.19900
C2185       C  0.52947017  0.28955277  0.75571180    -0.21330
C2186       C  0.53623386  0.32414487  0.75525757    -0.09370
C2187       C  0.51980745  0.34325197  0.73064074     0.29490
C2188       C  0.49909204  0.32831298  0.70707560    -0.21330
C2189       C  0.48919506  0.29524531  0.71076625    -0.09380
C2190       C  0.50485058  0.27563962  0.73514983     0.29490
F2191       F  0.49475341  0.24385180  0.74081185    -0.19910
H2192       H  0.54091838  0.27353162  0.77408264     0.17860
H2193       H  0.48742678  0.34381105  0.68833455     0.17860
F2194       F  0.51797232  0.37650876  0.73211400    -0.19900
C2195       C  0.41934370  0.32830284  0.71389975    -0.21330
C2196       C  0.42699683  0.29420456  0.71035842    -0.09370
C2197       C  0.40808877  0.27077153  0.72831748     0.29490
C2198       C  0.38214660  0.28132149  0.74903121    -0.21330
C2199       C  0.37592878  0.31547861  0.75415117    -0.09380
C2200       C  0.39508752  0.33895113  0.73655113     0.29490
F2201       F  0.39201751  0.37205415  0.74283496    -0.19910
H2202       H  0.43328994  0.34701828  0.70050854     0.17860
H2203       H  0.36848078  0.26278475  0.76317186     0.17860
F2204       F  0.41561118  0.23781800  0.72688797    -0.19900
C2205       C  0.64044171  0.39439984  0.27689972    -0.21330
C2206       C  0.61923994  0.42131282  0.28503247    -0.09370
C2207       C  0.58581512  0.42000477  0.27306557     0.29490
C2208       C  0.57563389  0.39492507  0.25098905    -0.21330
C2209       C  0.59760485  0.36921746  0.24234504    -0.09380
C2210       C  0.62902436  0.36773378  0.25770315     0.29490
F2211       F  0.64964032  0.34142173  0.25240653    -0.19910
H2212       H  0.66659773  0.39420317  0.28299569     0.17860
H2213       H  0.55108090  0.39634160  0.23951268     0.17860
F2214       F  0.56343023  0.44414790  0.28084959    -0.19900
C2215       C  0.58616937  0.53106636  0.27342210    -0.21330
C2216       C  0.60105295  0.53722234  0.24193874    -0.09370
C2217       C  0.62989608  0.51809163  0.23407505     0.29490
C2218       C  0.63810797  0.49012080  0.25247326    -0.21330
C2219       C  0.62270590  0.48386087  0.28284521    -0.09380
C2220       C  0.59766683  0.50535679  0.29409776     0.29490
F2221       F  0.58246974  0.49977175  0.32375478    -0.19910
H2222       H  0.56520411  0.54460699  0.28274930     0.17860
H2223       H  0.65776681  0.47379851  0.24356733     0.17860
F2224       F  0.65014992  0.52546995  0.20800605    -0.19900
C2225       C  0.67378513  0.49159248  0.37201109    -0.21330
C2226       C  0.67126204  0.48706215  0.33748036    -0.09370
C2227       C  0.69070305  0.50791911  0.31685366     0.29490
C2228       C  0.71049019  0.53323685  0.33047450    -0.21330
C2229       C  0.71568685  0.53558765  0.36499050    -0.09380
C2230       C  0.69696183  0.51409264  0.38565912     0.29490
F2231       F  0.70438940  0.51041372  0.41817710    -0.19910
H2232       H  0.66094946  0.47449814  0.38852420     0.17860
H2233       H  0.72571158  0.54797485  0.31370097     0.17860
F2234       F  0.69558297  0.50064544  0.28438606    -0.19900
C2235       C  0.70853352  0.42328506  0.32229761    -0.21330
C2236       C  0.67628519  0.42533135  0.33510042    -0.09370
C2237       C  0.66403857  0.39914364  0.35477307     0.29490
C2238       C  0.68526009  0.37243306  0.36338934    -0.21330
C2239       C  0.71939284  0.37230176  0.35380543    -0.09380
C2240       C  0.72908529  0.39675935  0.32992878     0.29490
F2241       F  0.75832716  0.39560871  0.31285129    -0.19910
H2242       H  0.71757866  0.44194323  0.30501903     0.17860
H2243       H  0.67437012  0.35214647  0.37702413     0.17860
F2244       F  0.63189775  0.39949793  0.36566807    -0.19900
C2245       C  0.51000535  0.56685739  0.25212850    -0.21330
C2246       C  0.53917824  0.58575957  0.24793398    -0.09370
C2247       C  0.54793028  0.60898814  0.27249137     0.29490
C2248       C  0.52567265  0.61582518  0.29862960    -0.21330
C2249       C  0.49295128  0.60190798  0.29901557    -0.09380
C2250       C  0.48775066  0.57400227  0.27783576     0.29490
F2251       F  0.45969264  0.55495307  0.28023310    -0.19910
H2252       H  0.50401479  0.54680948  0.23512615     0.17860
H2253       H  0.53485642  0.63218018  0.31761944     0.17860
F2254       F  0.57772552  0.62530585  0.27097177    -0.19900
C2255       C  0.40898400  0.61790652  0.23747398    -0.21330
C2256       C  0.38165455  0.59676960  0.24554348    -0.09370
C2257       C  0.37664410  0.59023922  0.27989775     0.29490
C2258       C  0.40204204  0.59795102  0.30327067    -0.21330
C2259       C  0.43127786  0.61463532  0.29306926    -0.09380
C2260       C  0.43307505  0.62664178  0.26054563     0.29490
F2261       F  0.45940613  0.64568107  0.25054990    -0.19910
H2262       H  0.41334413  0.62723305  0.21266226     0.17860
H2263       H  0.39911209  0.59065621  0.32903078     0.17860
F2264       F  0.34713418  0.57848201  0.29154376    -0.19900
C2265       C  0.39560492  0.68753887  0.39043088    -0.21330
C2266       C  0.37931640  0.70690705  0.36616693    -0.09370
C2267       C  0.38706535  0.70117522  0.33244318     0.29490
C2268       C  0.41317287  0.68001911  0.32377316    -0.21330
C2269       C  0.42959673  0.66062731  0.34784751    -0.09380
C2270       C  0.41911721  0.66334357  0.38118628     0.29490
F2271       F  0.43251108  0.64369617  0.40511338    -0.19910
H2272       H  0.39135682  0.69199004  0.41662686     0.17860
H2273       H  0.42149850  0.68013603  0.29822319     0.17860
F2274       F  0.37153447  0.71853953  0.30785344    -0.19900
C2275       C  0.52885696  0.68914074  0.38750655    -0.21330
C2276       C  0.54275765  0.70935645  0.36248807    -0.09370
C2277       C  0.53046796  0.70590795  0.32967313     0.29490
C2278       C  0.50356229  0.68494288  0.32284359    -0.21330
C2279       C  0.49137441  0.66310825  0.34719501    -0.09380
C2280       C  0.50495020  0.66471393  0.37952486     0.29490
F2281       F  0.49500457  0.64315140  0.40345802    -0.19910
H2282       H  0.53623823  0.69234597  0.41323682     0.17860
H2283       H  0.49303580  0.68462078  0.29795269     0.17860
F2284       F  0.54334403  0.72413201  0.30427630    -0.19900
C2285       C  0.24213613  0.58132912  0.46850488    -0.21330
C2286       C  0.25119925  0.61526458  0.46842925    -0.09370
C2287       C  0.23781443  0.63591859  0.44318070     0.29490
C2288       C  0.21599054  0.62255974  0.41923018    -0.21330
C2289       C  0.20410200  0.58973465  0.42224373    -0.09380
C2290       C  0.21634454  0.56982684  0.44815274     0.29490
F2291       F  0.20017850  0.54138762  0.45701709    -0.19910
H2292       H  0.25053242  0.56530583  0.48855875     0.17860
H2293       H  0.20564618  0.63893119  0.40047711     0.17860
F2294       F  0.24155240  0.66951210  0.44423378    -0.19900
C2295       C  0.25380155  0.60600732  0.56051008    -0.21330
C2296       C  0.24160105  0.61860568  0.52998319    -0.09370
C2297       C  0.20673463  0.62021570  0.52548530     0.29490
C2298       C  0.18528737  0.60567122  0.54806662    -0.21330
C2299       C  0.19668406  0.59276197  0.57868030    -0.09380
C2300       C  0.23137693  0.59554623  0.58560301     0.29490
F2301       F  0.24364535  0.58937621  0.61646844    -0.19910
H2302       H  0.28047079  0.60509208  0.56532143     0.17860
H2303       H  0.15913625  0.60546605  0.54109208     0.17860
F2304       F  0.19291672  0.63528452  0.49850890    -0.19900
C2305       C  0.27713590  0.67940672  0.55875529    -0.21330
C2306       C  0.30043554  0.66345423  0.53798461    -0.09370
C2307       C  0.33491290  0.66787221  0.54452839     0.29490
C2308       C  0.34557548  0.69052881  0.56891173    -0.21330
C2309       C  0.32201418  0.70755132  0.58839818    -0.09380
C2310       C  0.28779835  0.70020154  0.58439172     0.29490
F2311       F  0.26437095  0.71610918  0.60294184    -0.19910
H2312       H  0.25057823  0.67835477  0.55340161     0.17860
H2313       H  0.37198408  0.69647593  0.57101314     0.17860
F2314       F  0.35810463  0.65350182  0.52449090    -0.19900
C2315       C  0.30505500  0.70627880  0.48170928    -0.21330
C2316       C  0.30292679  0.67188385  0.47598452    -0.09370
C2317       C  0.31364775  0.65983769  0.44469442     0.29490
C2318       C  0.32403598  0.68240753  0.41965281    -0.21330
C2319       C  0.32781431  0.71685246  0.42654825    -0.09380
C2320       C  0.31878767  0.72781262  0.45880842     0.29490
F2321       F  0.32308204  0.75962651  0.46941302    -0.19910
H2322       H  0.29669754  0.71714637  0.50489861     0.17860
H2323       H  0.32935083  0.67271654  0.39513114     0.17860
F2324       F  0.31398127  0.62667047  0.43812904    -0.19900
C2325       C  0.58591864  0.24232346  0.53760550    -0.21330
C2326       C  0.62048173  0.24349845  0.53046838    -0.09370
C2327       C  0.64177106  0.22211589  0.54860872     0.29490
C2328       C  0.62979129  0.20377525  0.57526471    -0.21330
C2329       C  0.59538207  0.20091429  0.58116028    -0.09380
C2330       C  0.57324383  0.22009000  0.56164821     0.29490
F2331       F  0.53961547  0.21598164  0.56450316    -0.19910
H2332       H  0.56851348  0.25648416  0.52251316     0.17860
H2333       H  0.64726862  0.18784763  0.58840600     0.17860
F2334       F  0.67257772  0.21381348  0.53762554    -0.19900
C2335       C  0.63817000  0.20914873  0.46446181    -0.21330
C2336       C  0.62359630  0.24046834  0.46835498    -0.09370
C2337       C  0.60186978  0.25206903  0.44352078     0.29490
C2338       C  0.59263709  0.23101680  0.41692086    -0.21330
C2339       C  0.60382166  0.19750128  0.41535763    -0.09380
C2340       C  0.62994951  0.18879203  0.43782437     0.29490
F2341       F  0.64825495  0.16051220  0.43464654    -0.19910
H2342       H  0.65700869  0.20051177  0.48172299     0.17860
H2343       H  0.57706665  0.24175391  0.39808402     0.17860
F2344       F  0.58885800  0.28322964  0.44548396    -0.19900
C2345       C  0.68770496  0.27405542  0.44716995    -0.21330
C2346       C  0.67060092  0.29769141  0.46652972    -0.09370
C2347       C  0.67497955  0.33169538  0.45855074     0.29490
C2348       C  0.69771751  0.34137308  0.43385766    -0.21330
C2349       C  0.71348597  0.31746238  0.41377769    -0.09380
C2350       C  0.70712657  0.28357902  0.42008993     0.29490
F2351       F  0.72251031  0.25943652  0.40211369    -0.19910
H2352       H  0.68793709  0.24810257  0.45398227     0.17860
H2353       H  0.70344211  0.36759170  0.43075349     0.17860
F2354       F  0.65836021  0.35582978  0.47515988    -0.19900
C2355       C  0.69662040  0.27823888  0.54112450    -0.21330
C2356       C  0.67090159  0.29828530  0.52917091    -0.09370
C2357       C  0.66666382  0.32994847  0.54385921     0.29490
C2358       C  0.69012933  0.34146069  0.56763650    -0.21330
C2359       C  0.71329299  0.31917848  0.58221729    -0.09380
C2360       C  0.71331170  0.28606531  0.57025751     0.29490
F2361       F  0.73304830  0.26217860  0.58393455    -0.19910
H2362       H  0.70487429  0.25688055  0.52713420     0.17860
H2363       H  0.69052988  0.36768970  0.57373292     0.17860
F2364       F  0.64136308  0.35026805  0.53422001    -0.19900
C2365       C  0.17201914  0.89686301  0.15410201    -0.21330
C2366       C  0.18532721  0.92674370  0.16723318    -0.09370
C2367       C  0.22021956  0.93004175  0.16908503     0.29490
C2368       C  0.24097265  0.90671157  0.15434553    -0.21330
C2369       C  0.22853166  0.87687756  0.14001160    -0.09380
C2370       C  0.19344529  0.87142910  0.14215437     0.29490
F2371       F  0.17967359  0.84155839  0.13428468    -0.19910
H2372       H  0.14515683  0.89318571  0.15310297     0.17860
H2373       H  0.26736517  0.91274018  0.15449718     0.17860
F2374       F  0.23443757  0.95732412  0.18348250    -0.19900
C2375       C  0.12771798  0.01711962  0.26865642    -0.21330
C2376       C  0.09424752  0.02792627  0.26414126    -0.09370
C2377       C  0.07764652  0.01645153  0.23496486     0.29490
C2378       C  0.09420215  0.99651312  0.21145498    -0.21330
C2379       C  0.12648313  0.98450995  0.21764496    -0.09380
C2380       C  0.14269174  0.99436232  0.24707878     0.29490
F2381       F  0.17355043  0.98227624  0.25464510    -0.19910
H2382       H  0.14226956  0.02475952  0.29008355     0.17860
H2383       H  0.08051236  0.98781958  0.18980409     0.17860
F2384       F  0.04457554  0.02019691  0.23028012    -0.19900
C2385       C  0.18996387  0.98312853  0.12452731    -0.21330
C2386       C  0.17643140  0.98858390  0.15666737    -0.09370
C2387       C  0.18241308  0.02075379  0.17065290     0.29490
C2388       C  0.20354688  0.04388399  0.15476266    -0.21330
C2389       C  0.22086921  0.03547031  0.12574585    -0.09380
C2390       C  0.21397874  0.00454809  0.11094194     0.29490
F2391       F  0.23175248  0.99421952  0.08407648    -0.19910
H2392       H  0.18553404  0.95973727  0.11174083     0.17860
H2393       H  0.20883177  0.06739430  0.16698513     0.17860
F2394       F  0.17078312  0.03021908  0.20051664    -0.19900
C2395       C  0.13721114  0.87752081  0.25382152    -0.21330
C2396       C  0.10244341  0.87232260  0.25736051    -0.09370
C2397       C  0.08058420  0.89188884  0.23812444     0.29490
C2398       C  0.09339112  0.91591767  0.21613939    -0.21330
C2399       C  0.12807193  0.92289120  0.21458599    -0.09380
C2400       C  0.14987146  0.90305698  0.23368557     0.29490
F2401       F  0.18306716  0.91022895  0.23548939    -0.19910
H2402       H  0.15467143  0.86353816  0.26901232     0.17860
H2403       H  0.07582021  0.93079194  0.20205595     0.17860
F2404       F  0.04691956  0.88943727  0.24219284    -0.19900
C2405       C  0.02205955  0.22525132  0.16823587    -0.21330
C2406       C  0.03761410  0.22110796  0.13679818    -0.09370
C2407       C  0.02900763  0.19180056  0.11886201     0.29490
C2408       C  0.00746644  0.16753604  0.13297336    -0.21330
C2409       C  0.99034801  0.17388531  0.16294646    -0.09380
C2410       C  0.99724421  0.20377032  0.17959302     0.29490
F2411       F  0.98036850  0.21178328  0.20781193    -0.19910
H2412       H  0.02739993  0.24650542  0.18394340     0.17860
H2413       H  0.00168835  0.14523358  0.11887887     0.17860
F2414       F  0.03797106  0.18768961  0.08670824    -0.19900
C2415       C  0.87644805  0.09511638  0.23119129    -0.21330
C2416       C  0.88312227  0.09491346  0.26588058    -0.09370
C2417       C  0.91311344  0.11110409  0.27642522     0.29490
C2418       C  0.93386608  0.12742509  0.25419926    -0.21330
C2419       C  0.92950628  0.12426337  0.21985627    -0.09380
C2420       C  0.90017951  0.10812968  0.20827393     0.29490
F2421       F  0.89489228  0.10413667  0.17514992    -0.19910
H2422       H  0.85335976  0.08492307  0.22150162     0.17860
H2423       H  0.95616229  0.13949818  0.26398387     0.17860
F2424       F  0.92428398  0.11018827  0.30832188    -0.19900
C2425       C  0.98552546  0.08076812  0.22455763    -0.21330
C2426       C  0.99125803  0.11352048  0.21257952    -0.09370
C2427       C  0.02182022  0.12879878  0.22292297     0.29490
C2428       C  0.04407234  0.11236493  0.24462886    -0.21330
C2429       C  0.03537830  0.08205598  0.25965734    -0.09380
C2430       C  0.00498169  0.06718086  0.25019800     0.29490
F2431       F  0.99375127  0.03954558  0.26622196    -0.19910
H2432       H  0.96279178  0.06760736  0.21771254     0.17860
H2433       H  0.06670835  0.12515270  0.25235802     0.17860
F2434       F  0.02952013  0.16065885  0.21595872    -0.19900
C2435       C  0.90382009  0.18578343  0.18156695    -0.21330
C2436       C  0.92782696  0.17133513  0.16028975    -0.09370
C2437       C  0.92519266  0.17876256  0.12599205     0.29490
C2438       C  0.90284889  0.20295583  0.11447433    -0.21330
C2439       C  0.87860534  0.21688783  0.13536739    -0.09380
C2440       C  0.87866226  0.20694300  0.16905855     0.29490
F2441       F  0.85576960  0.21938430  0.19055584    -0.19910
H2442       H  0.90532033  0.18241427  0.20819334     0.17860
H2443       H  0.90654024  0.21239511  0.08969222     0.17860
F2444       F  0.94568350  0.16427592  0.10343913    -0.19900
C2445       C  0.14406241  0.18802303  0.93924982    -0.21330
C2446       C  0.12338026  0.17297586  0.96321258    -0.09370
C2447       C  0.08828439  0.17687275  0.95956109     0.29490
C2448       C  0.07508256  0.19905511  0.93573887    -0.21330
C2449       C  0.09650541  0.21605890  0.91382953    -0.09380
C2450       C  0.13081119  0.20825760  0.91435418     0.29490
F2451       F  0.15234279  0.22318428  0.89297084    -0.19910
H2452       H  0.17080972  0.18819194  0.94187478     0.17860
H2453       H  0.04856100  0.20469849  0.93595768     0.17860
F2454       F  0.06719380  0.16289264  0.98204345    -0.19900
C2455       C  0.17577898  0.09393880  0.03861811    -0.21330
C2456       C  0.17821303  0.12795710  0.03107507    -0.09370
C2457       C  0.20232751  0.14708126  0.04794344     0.29490
C2458       C  0.22423905  0.13195556  0.07080548    -0.21330
C2459       C  0.22386561  0.09706699  0.07651949    -0.09380
C2460       C  0.19871025  0.07846511  0.06000472     0.29490
F2461       F  0.19840590  0.04491743  0.06039655    -0.19910
H2462       H  0.15805299  0.07845827  0.02522372     0.17860
H2463       H  0.24299737  0.14761561  0.08233837     0.17860
F2464       F  0.20670831  0.17972777  0.04016348    -0.19900
C2465       C  0.09896092  0.23628021  0.04235676    -0.21330
C2466       C  0.09428438  0.22545465  0.07520559    -0.09370
C2467       C  0.10625756  0.19336934  0.08354241     0.29490
C2468       C  0.11976868  0.17224478  0.05854551    -0.21330
C2469       C  0.12525861  0.18421293  0.02579056    -0.09380
C2470       C  0.11643205  0.21764871  0.01936414     0.29490
F2471       F  0.12499746  0.23329749  0.99068375    -0.19910
H2472       H  0.09099316  0.26074094  0.03445943     0.17860
H2473       H  0.12592120  0.14686632  0.06506686     0.17860
F2474       F  0.10479228  0.18242556  0.11543360    -0.19900
C2475       C  0.21057830  0.14400029  0.95984335    -0.21330
C2476       C  0.18141963  0.12732877  0.96942194    -0.09370
C2477       C  0.17356438  0.09705281  0.95381332     0.29490
C2478       C  0.19529959  0.08336308  0.92989011    -0.21330
C2479       C  0.22520059  0.09977734  0.92017109    -0.09380
C2480       C  0.23087042  0.13176043  0.93448317     0.29490
F2481       F  0.25633093  0.15179484  0.92458248    -0.19910
H2482       H  0.21744045  0.16724361  0.97184464     0.17860
H2483       H  0.18838102  0.05964285  0.92058332     0.17860
F2484       F  0.14581365  0.07975195  0.96292891    -0.19900
C2485       C  0.54418106  0.21180115  0.32675387    -0.21330
C2486       C  0.54467963  0.20346600  0.36069028    -0.09370
C2487       C  0.52163390  0.21875708  0.38216544     0.29490
C2488       C  0.49915076  0.24240393  0.36996588    -0.21330
C2489       C  0.49634389  0.24835053  0.33554295    -0.09380
C2490       C  0.51956877  0.23302558  0.31398500     0.29490
F2491       F  0.51566778  0.23480775  0.28045854    -0.19910
H2492       H  0.56058581  0.19899793  0.30955681     0.17860
H2493       H  0.48087200  0.25286907  0.38688319     0.17860
F2494       F  0.51969585  0.20944791  0.41458237    -0.19900
C2495       C  0.39298577  0.33911637  0.26118865    -0.21330
C2496       C  0.37166049  0.31515942  0.24674594    -0.09370
C2497       C  0.37666547  0.28136525  0.25437129     0.29490
C2498       C  0.40427065  0.27170905  0.27330771    -0.21330
C2499       C  0.42538312  0.29569629  0.28811752    -0.09380
C2500       C  0.41761321  0.32970002  0.28404977     0.29490
F2501       F  0.43757115  0.35358563  0.29764871    -0.19910
H2502       H  0.39095143  0.36510081  0.25414970     0.17860
H2503       H  0.41030738  0.24545371  0.27439875     0.17860
F2504       F  0.35720577  0.25742283  0.24021218    -0.19900
C2505       C  0.40363543  0.25136504  0.34715227    -0.21330
C2506       C  0.43436732  0.23914313  0.33461081    -0.09370
C2507       C  0.43892332  0.20447886  0.33406269     0.29490
C2508       C  0.41656415  0.18353135  0.34949232    -0.21330
C2509       C  0.38557084  0.19473384  0.36206095    -0.09380
C2510       C  0.37845684  0.22910589  0.35838255     0.29490
F2511       F  0.34734442  0.24115926  0.36434164    -0.19910
H2512       H  0.39864713  0.27786180  0.34728038     0.17860
H2513       H  0.42408736  0.15773260  0.35020593     0.17860
F2514       F  0.46549041  0.19013776  0.31871436    -0.19900
C2515       C  0.52169072  0.30558297  0.29417656    -0.21330
C2516       C  0.48870208  0.30247340  0.28123013    -0.09370
C2517       C  0.48362561  0.31457199  0.24832450     0.29490
C2518       C  0.50971736  0.32856539  0.23047049    -0.21330
C2519       C  0.54262705  0.32140026  0.23954719    -0.09380
C2520       C  0.54885487  0.31193916  0.27266022     0.29490
F2521       F  0.58068911  0.30793045  0.28384760    -0.19910
H2522       H  0.52710599  0.30068711  0.32003170     0.17860
H2523       H  0.50436256  0.33872674  0.20603050     0.17860
F2524       F  0.45474075  0.30971855  0.23110498    -0.19900
C2525       C  0.25408882  0.39970101  0.34880823    -0.21330
C2526       C  0.24052573  0.42857706  0.33425542    -0.09370
C2527       C  0.20574058  0.43095288  0.33109973     0.29490
C2528       C  0.18516897  0.40709855  0.34503194    -0.21330
C2529       C  0.19797921  0.37799433  0.36037455    -0.09380
C2530       C  0.23319151  0.37376220  0.35994961     0.29490
F2531       F  0.24784317  0.34455699  0.36833120    -0.19910
H2532       H  0.28082792  0.39706438  0.35160752     0.17860
H2533       H  0.15866570  0.41216123  0.34315232     0.17860
F2534       F  0.19112408  0.45660445  0.31460923    -0.19900
C2535       C  0.28081479  0.49948026  0.26003446    -0.21330
C2536       C  0.30106784  0.48319283  0.28310383    -0.09370
C2537       C  0.33537964  0.49139470  0.28428561     0.29490
C2538       C  0.34812504  0.51659665  0.26335420    -0.21330
C2539       C  0.32614107  0.53588204  0.24368336    -0.09380
C2540       C  0.29185296  0.52772691  0.24384159     0.29490
F2541       F  0.26923668  0.54514343  0.22561302    -0.19910
H2542       H  0.25635902  0.48977068  0.25369488     0.17860
H2543       H  0.37491770  0.52067848  0.26207830     0.17860
F2544       F  0.35668145  0.47360451  0.30368871    -0.19900
C2545       C  0.23169727  0.51298776  0.31766743    -0.21330
C2546       C  0.25021200  0.49063936  0.33747374    -0.09370
C2547       C  0.24823184  0.49442774  0.37215952     0.29490
C2548       C  0.22573408  0.51722482  0.38615064    -0.21330
C2549       C  0.20661836  0.53878406  0.36606000    -0.09380
C2550       C  0.21175792  0.53768864  0.33159102     0.29490
F2551       F  0.19372581  0.55740875  0.31079897    -0.19910
H2552       H  0.22778263  0.50890742  0.29171837     0.17860
H2553       H  0.22119153  0.51502002  0.41223685     0.17860
F2554       F  0.26445802  0.47276086  0.39249526    -0.19900
C2555       C  0.32367378  0.37092464  0.27477069    -0.21330
C2556       C  0.30989684  0.36714495  0.24255553    -0.09370
C2557       C  0.28174984  0.38762974  0.23507908     0.29490
C2558       C  0.27321049  0.41437038  0.25542261    -0.21330
C2559       C  0.29207227  0.42171203  0.28375055    -0.09380
C2560       C  0.31671737  0.39918816  0.29405559     0.29490
F2561       F  0.33447792  0.40475868  0.32238566    -0.19910
H2562       H  0.33985013  0.35282838  0.28571422     0.17860
H2563       H  0.25264384  0.43035664  0.24811435     0.17860
F2564       F  0.26237404  0.38274795  0.20774605    -0.19900
C2565       C  0.23725652  0.31812256  0.58269197    -0.21330
C2566       C  0.20256628  0.31115361  0.57942152    -0.09370
C2567       C  0.19295656  0.29148436  0.55137018     0.29490
C2568       C  0.21519690  0.28489165  0.52586916    -0.21330
C2569       C  0.24829784  0.29591936  0.52722104    -0.09380
C2570       C  0.25975101  0.31151468  0.55646667     0.29490
F2571       F  0.29233770  0.32078099  0.55946113    -0.19910
H2572       H  0.24743652  0.32866480  0.60520438     0.17860
H2573       H  0.20633027  0.27059445  0.50470080     0.17860
F2574       F  0.16206077  0.27779291  0.54767361    -0.19900
C2575       C  0.28645355  0.21850321  0.46122515    -0.21330
C2576       C  0.30596069  0.24616502  0.46952903    -0.09370
C2577       C  0.33743834  0.24972067  0.45409491     0.29490
C2578       C  0.34869110  0.22525329  0.43142478    -0.21330
C2579       C  0.32679491  0.19988006  0.42013138    -0.09380
C2580       C  0.29437693  0.19873909  0.43424394     0.29490
F2581       F  0.27055554  0.17696878  0.42356039    -0.19910
H2582       H  0.26375969  0.21298039  0.47495759     0.17860
H2583       H  0.37449900  0.22596296  0.42345732     0.17860
F2584       F  0.35793153  0.27549623  0.46218900    -0.19900
C2585       C  0.34735817  0.22164587  0.56258759    -0.21330
C2586       C  0.32347346  0.20143073  0.57857340    -0.09370
C2587       C  0.28932921  0.20657145  0.57156652     0.29490
C2588       C  0.27977381  0.22927828  0.54715232    -0.21330
C2589       C  0.30382876  0.24898957  0.53087135    -0.09380
C2590       C  0.33754322  0.24611807  0.54013922     0.29490
F2591       F  0.36140576  0.26519161  0.52556808    -0.19910
H2592       H  0.37384741  0.21730441  0.56529458     0.17860
H2593       H  0.25378204  0.22976184  0.53950511     0.17860
F2594       F  0.26532317  0.18776047  0.58641680    -0.19900
C2595       C  0.23934223  0.27852180  0.44350112    -0.21330
C2596       C  0.25491963  0.30106883  0.46541727    -0.09370
C2597       C  0.24790258  0.33531423  0.46145449     0.29490
C2598       C  0.22447416  0.34591976  0.43753816    -0.21330
C2599       C  0.20899815  0.32256061  0.41638770    -0.09380
C2600       C  0.21840483  0.28913004  0.41824407     0.29490
F2601       F  0.20360852  0.26584990  0.39845819    -0.19910
H2602       H  0.23892042  0.25240586  0.44794762     0.17860
H2603       H  0.21678272  0.37178584  0.43702001     0.17860
F2604       F  0.26080411  0.35794659  0.48314231    -0.19900
loop_ 
_geom_bond_atom_site_label_1 
_geom_bond_atom_site_label_2 
_geom_bond_distance 
_geom_bond_site_symmetry_2 
_ccdc_geom_bond_type 
C1            C2   1.374       .  D
C1         C2576   1.493       .  S
C1         C2589   1.484       .  S
C2         C2569   1.496       .  S
C2         C2596   1.500       .  S
C3            C4   1.371       .  D
C3         C2536   1.485       .  S
C3         C2559   1.483       .  S
C4         C2526   1.495       .  S
C4         C2546   1.506       .  S
C5            C6   1.382       .  D
C5         C2499   1.498       .  S
C5         C2516   1.532       .  S
C6         C2489   1.499       .  S
C6         C2506   1.516       .  S
C7            C8   1.380       .  D
C7         C2456   1.493   1_556  S
C7         C2476   1.496       .  S
C8         C2446   1.516       .  S
C8         C2469   1.523   1_556  S
C9           C10   1.390       .  D
C9         C2409   1.501       .  S
C9         C2436   1.520       .  S
C10        C2419   1.514       .  S
C10        C2426   1.541       .  S
C11          C12   1.384       .  D
C11        C2366   1.511       .  S
C11        C2386   1.543       .  S
C12        C2379   1.487       .  S
C12        C2399   1.508       .  S
C13          C14   1.382       .  D
C13        C2346   1.505       .  S
C13        C2356   1.494       .  S
C14        C2326   1.503       .  S
C14        C2336   1.490       .  S
C15          C16   1.374       .  D
C15        C2306   1.500       .  S
C15        C2316   1.512       .  S
C16        C2286   1.500       .  S
C16        C2296   1.513       .  S
C17          C18   1.382       .  D
C17        C2269   1.502       .  S
C17        C2279   1.482       .  S
C18        C2249   1.539       .  S
C18        C2259   1.497       .  S
C19          C20   1.373       .  D
C19        C2226   1.504       .  S
C19        C2236   1.480       .  S
C20        C2206   1.514       .  S
C20        C2219   1.479       .  S
C21          C22   1.371       .  D
C21        C2189   1.488       .  S
C21        C2196   1.488       .  S
C22        C2166   1.532       .  S
C22        C2176   1.498       .  S
C23          C24   1.385       .  D
C23        C2126   1.492       .  S
C23        C2136   1.501       .  S
C24        C2146   1.513       .  S
C24        C2159   1.534       .  S
C25          C26   1.399       .  D
C25        C2106   1.516   1_556  S
C25        C2119   1.549       .  S
C26        C2089   1.514   1_556  S
C26        C2096   1.508       .  S
C27          C28   1.378   1_554  D
C27        C2066   1.505       .  S
C27        C2079   1.499   1_554  S
C28        C2046   1.525   1_556  S
C28        C2056   1.522       .  S
C29          C30   1.392       .  D
C29        C2026   1.532       .  S
C29        C2039   1.507       .  S
C30        C2006   1.514       .  S
C30        C2016   1.497       .  S
C31          C32   1.386       .  D
C31        C1986   1.510       .  S
C31        C1999   1.530       .  S
C32        C1966   1.507       .  S
C32        C1976   1.523       .  S
C33          C34   1.388       .  D
C33        C1946   1.508       .  S
C33        C1956   1.538       .  S
C34        C1926   1.492       .  S
C34        C1936   1.516       .  S
C35          C36   1.385       .  D
C35        C1906   1.486       .  S
C35        C1916   1.518       .  S
C36        C1886   1.492       .  S
C36        C1896   1.527       .  S
N37          N38   1.318       .  A
N37          N43   1.312       .  A
N37         Mn66   2.181       .  S
N38          C45   1.351       .  A
N39          N41   1.312       .  A
N39          N40   1.320       .  A
N39         Mn55   2.198   1_554  S
N40          C46   1.354       .  A
N41          N42   1.318       .  A
N41         Mn66   2.180   1_554  S
N42          C46   1.351       .  A
N43          N44   1.323       .  A
N43         Mn55   2.205       .  S
N44          C45   1.356       .  A
C45        C1836   1.482       .  S
C46        C1816   1.478       .  S
N47          N53   1.320       .  A
N47          N48   1.327       .  A
N47         Mn77   2.232       .  S
N48          C56   1.358       .  A
N49          N50   1.313       .  A
N49          N51   1.321       .  A
N49         Mn55   2.176       .  S
N50          C57   1.340       .  A
N51          N52   1.328       .  A
N51         Mn77   2.243   1_556  S
N52          C57   1.361       .  A
N53          N54   1.316       .  A
N53         Mn55   2.191   1_554  S
N54          C56   1.346       .  A
Mn55        Cl79   2.494       .  S
C56        C1859   1.476       .  S
C57        C1879   1.470       .  S
N58          N59   1.318       .  A
N58          N64   1.311       .  A
N58         Mn66   2.178   1_554  S
N59          C67   1.353       .  A
N60          N62   1.311       .  A
N60          N61   1.318       .  A
N60         Mn78   2.178       .  S
N61          C68   1.351       .  A
N62          N63   1.315       .  A
N62         Mn66   2.177       .  S
N63          C68   1.351       .  A
N64          N65   1.315       .  A
N64         Mn78   2.173   1_554  S
N65          C67   1.349       .  A
Mn66        Cl79   2.574       .  S
C67        C1826   1.467       .  S
C68        C1809   1.466       .  S
N69          N70   1.330       .  A
N69          N75   1.319       .  A
N69         Mn77   2.248   1_556  S
N70          C80   1.362       .  A
N71          N72   1.312       .  A
N71          N73   1.318       .  A
N71         Mn78   2.174   1_554  S
N72          C81   1.343       .  A
N73          N74   1.327       .  A
N73         Mn77   2.233       .  S
N74          C81   1.361       .  A
N75          N76   1.313       .  A
N75         Mn78   2.172       .  S
N76          C80   1.340       .  A
Mn77        Cl79   2.596   1_554  S
Mn78        Cl79   2.490       .  S
C80        C1849   1.475       .  S
C81        C1866   1.473       .  S
N82          N83   1.315       .  A
N82          N88   1.312       .  A
N82        Mn111   2.175       .  S
N83          C90   1.350       .  A
N84          N86   1.312       .  A
N84          N85   1.321       .  A
N84        Mn100   2.208   1_554  S
N85          C91   1.355       .  A
N86          N87   1.318       .  A
N86        Mn111   2.168   1_554  S
N87          C91   1.348       .  A
N88          N89   1.324       .  A
N88        Mn100   2.205       .  S
N89          C90   1.356       .  A
C90        C1759   1.479       .  S
C91        C1729   1.470       .  S
N92          N98   1.319       .  A
N92          N93   1.328       .  A
N92        Mn122   2.236   1_554  S
N93         C101   1.359       .  A
N94          N95   1.316       .  A
N94          N96   1.320       .  A
N94        Mn100   2.194       .  S
N95         C102   1.346       .  A
N96          N97   1.327       .  A
N96        Mn122   2.237       .  S
N97         C102   1.359       .  A
N98          N99   1.314       .  A
N98        Mn100   2.181   1_554  S
N99         C101   1.342       .  A
Mn100      Cl124   2.496       .  S
C101       C1769   1.471       .  S
C102       C1796   1.478       .  S
N103        N104   1.316       .  A
N103        N109   1.311       .  A
N103       Mn111   2.175   1_554  S
N104        C112   1.350       .  A
N105        N107   1.311       .  A
N105        N106   1.319       .  A
N105       Mn123   2.181   1_556  S
N106        C113   1.352       .  A
N107        N108   1.314       .  A
N107       Mn111   2.169       .  S
N108        C113   1.350       .  A
N109        N110   1.321       .  A
N109       Mn123   2.194       .  S
N110        C112   1.354       .  A
Mn111      Cl124   2.571       .  S
C112       C1739   1.474       .  S
C113       C1749   1.466       .  S
N114        N115   1.327       .  A
N114        N120   1.319       .  A
N114       Mn122   2.238       .  S
N115        C125   1.359       .  A
N116        N117   1.311       .  A
N116        N118   1.318       .  A
N116       Mn123   2.167       .  S
N117        C126   1.341       .  A
N118        N119   1.327       .  A
N118       Mn122   2.236   1_554  S
N119        C126   1.361       .  A
N120        N121   1.315       .  A
N120       Mn123   2.184   1_556  S
N121        C125   1.343       .  A
Mn122      Cl124   2.592       .  S
Mn123      Cl124   2.497   1_554  S
C125       C1779   1.471       .  S
C126       C1789   1.473       .  S
C127        C128   1.384       .  D
C127       C1716   1.498       .  S
C127       C2029   1.498       .  S
C128       C1799   1.508       .  S
C128       C2076   1.535       .  S
C129        C130   1.386       .  D
C129       C1696   1.519       .  S
C129       C1786   1.504       .  S
C130       C1706   1.503       .  S
C130       C1929   1.518       .  S
N131        N132   1.328       .  A
N131        N137   1.322       .  A
N131       Mn160   2.245       .  S
N132        C139   1.360       .  A
N133        N135   1.318       .  A
N133        N134   1.310       .  A
N133       Mn149   2.170   1_455  S
N134        C140   1.342       .  A
N135        N136   1.326       .  A
N135       Mn160   2.223   1_455  S
N136        C140   1.359       .  A
N137        N138   1.313       .  A
N137       Mn149   2.180       .  S
N138        C139   1.341       .  A
C139       C1719   1.472       .  S
C140       C1689   1.466       .  S
N141        N147   1.311       .  A
N141        N142   1.320       .  A
N141       Mn171   2.187   1_455  S
N142        C150   1.354       .  A
N143        N144   1.322       .  A
N143        N145   1.309       .  A
N143       Mn149   2.191       .  S
N144        C151   1.355       .  A
N145        N146   1.313       .  A
N145       Mn171   2.162       .  S
N146        C151   1.348       .  A
N147        N148   1.320       .  A
N147       Mn149   2.191   1_455  S
N148        C150   1.353       .  A
Mn149      Cl173   2.489       .  S
C150       C1646   1.479       .  S
C151       C1626   1.470       .  S
N152        N153   1.326       .  A
N152        N158   1.318   1_455  A
N152       Mn160   2.231   1_455  S
N153        C161   1.360       .  A
N154        N156   1.319       .  A
N154        N155   1.311       .  A
N154       Mn172   2.173       .  S
N155        C162   1.342       .  A
N156        N157   1.332       .  A
N156       Mn160   2.246       .  S
N157        C162   1.363       .  A
N158        N159   1.314   1_655  A
N158       Mn172   2.184       .  S
N159        C161   1.345       .  A
Mn160      Cl173   2.589       .  S
C161       C1666   1.477       .  S
C162       C1676   1.486       .  S
N163        N164   1.318       .  A
N163        N169   1.312       .  A
N163       Mn171   2.179       .  S
N164        C174   1.351       .  A
N165        N166   1.317   1_655  A
N165        N167   1.310       .  A
N165       Mn172   2.172       .  S
N166        C175   1.350       .  A
N167        N168   1.312   1_655  A
N167       Mn171   2.155       .  S
N168        C175   1.348       .  A
N169        N170   1.317       .  A
N169       Mn172   2.184       .  S
N170        C174   1.351       .  A
Mn171      Cl173   2.580       .  S
Mn172      Cl173   2.487       .  S
C174       C1656   1.470       .  S
C175       C1636   1.459       .  S
C176        C177   1.380       .  D
C176       C1846   1.507       .  S
C176       C2449   1.491       .  S
C177       C1686   1.495       .  S
C177       C2036   1.530       .  S
C178        C179   1.372       .  D
C178       C1606   1.507       .  S
C178       C1776   1.493       .  S
C179       C1616   1.493       .  S
C179       C1679   1.504       .  S
C180        C181   1.384       .  D
C180       C1599   1.530       .  S
C180       C1669   1.505       .  S
C181       C1876   1.496       .  S
C181       C2099   1.498       .  S
C182        C183   1.377       .  D
C182       C1589   1.494       .  S
C182       C2439   1.503       .  S
C183       C1766   1.495       .  S
C183       C2069   1.503       .  S
N184        N185   1.325       .  A
N184        N190   1.320       .  A
N184       Mn213   2.225       .  S
N185        C192   1.358       .  A
N186        N188   1.320       .  A
N186        N187   1.315   1_655  A
N186       Mn202   2.179       .  S
N187        C193   1.343       .  A
N188        N189   1.328   1_655  A
N188       Mn213   2.240       .  S
N189        C193   1.359       .  A
N190        N191   1.314       .  A
N190       Mn202   2.186       .  S
N191        C192   1.343       .  A
C192       C1709   1.465       .  S
C193       C1579   1.474       .  S
N194        N200   1.312   1_655  A
N194        N195   1.315   1_655  A
N194       Mn224   2.169       .  S
N195        C203   1.348       .  A
N196        N197   1.319       .  A
N196        N198   1.311       .  A
N196       Mn202   2.184       .  S
N197        C204   1.352       .  A
N198        N199   1.313       .  A
N198       Mn224   2.156       .  S
N199        C204   1.347       .  A
N200        N201   1.321       .  A
N200       Mn202   2.198   1_455  S
N201        C203   1.355       .  A
Mn202      Cl226   2.494       .  S
C203       C1546   1.471       .  S
C204       C1526   1.463       .  S
N205        N206   1.325       .  A
N205        N211   1.319       .  A
N205       Mn213   2.223   1_455  S
N206        C214   1.358       .  A
N207        N209   1.318       .  A
N207        N208   1.311       .  A
N207       Mn225   2.165       .  S
N208        C215   1.340       .  A
N209        N210   1.330       .  A
N209       Mn213   2.242       .  S
N210        C215   1.362       .  A
N211        N212   1.312       .  A
N211       Mn225   2.176   1_455  S
N212        C214   1.342       .  A
Mn213      Cl226   2.591       .  S
C214       C1566   1.461       .  S
C215       C1586   1.474       .  S
N216        N217   1.315       .  A
N216        N222   1.311       .  A
N216       Mn224   2.171       .  S
N217        C227   1.351       .  A
N218        N219   1.316   1_655  A
N218        N220   1.309       .  A
N218       Mn225   2.169       .  S
N219        C228   1.350       .  A
N220        N221   1.313   1_655  A
N220       Mn224   2.159       .  S
N221        C228   1.349       .  A
N222        N223   1.318       .  A
N222       Mn225   2.184       .  S
N223        C227   1.352       .  A
Mn224      Cl226   2.567       .  S
Mn225      Cl226   2.488       .  S
C227       C1556   1.468       .  S
C228       C1536   1.458       .  S
N229        N230   1.323       .  A
N229        N235   1.313       .  A
N229       Mn258   2.214   1_556  S
N230        C237   1.356       .  A
N231        N233   1.312       .  A
N231        N232   1.322       .  A
N231       Mn247   2.200       .  S
N232        C238   1.354       .  A
N233        N234   1.321       .  A
N233       Mn258   2.196       .  S
N234        C238   1.354       .  A
N235        N236   1.322       .  A
N235       Mn247   2.194   1_556  S
N236        C237   1.353       .  A
C237       C1479   1.490       .  S
C238       C1459   1.486       .  S
N239        N245   1.318       .  A
N239        N240   1.327       .  A
N239       Mn269   2.233   1_554  S
N240        C248   1.360       .  A
N241        N242   1.314       .  A
N241        N243   1.320       .  A
N241       Mn247   2.194   1_556  S
N242        C249   1.345       .  A
N243        N244   1.324       .  A
N243       Mn269   2.212       .  S
N244        C249   1.355       .  A
N245        N246   1.313       .  A
N245       Mn247   2.176       .  S
N246        C248   1.343       .  A
Mn247      Cl271   2.501   1_554  S
C248       C1496   1.472       .  S
C249       C1516   1.462       .  S
N250        N251   1.323       .  A
N250        N256   1.312       .  A
N250       Mn258   2.213       .  S
N251        C259   1.358       .  A
N252        N254   1.312       .  A
N252        N253   1.319       .  A
N252       Mn270   2.182       .  S
N253        C260   1.353       .  A
N254        N255   1.318       .  A
N254       Mn258   2.190   1_556  S
N255        C260   1.352       .  A
N256        N257   1.317       .  A
N256       Mn270   2.165   1_554  S
N257        C259   1.344       .  A
Mn258      Cl271   2.569   1_554  S
C259       C1466   1.465       .  S
C260       C1449   1.475       .  S
N261        N262   1.328       .  A
N261        N267   1.319       .  A
N261       Mn269   2.241       .  S
N262        C272   1.360       .  A
N263        N264   1.312       .  A
N263        N265   1.317       .  A
N263       Mn270   2.178   1_554  S
N264        C273   1.344       .  A
N265        N266   1.323       .  A
N265       Mn269   2.207   1_554  S
N266        C273   1.357       .  A
N267        N268   1.314       .  A
N267       Mn270   2.173       .  S
N268        C272   1.342       .  A
Mn269      Cl271   2.578       .  S
Mn270      Cl271   2.502       .  S
C272       C1489   1.476       .  S
C273       C1509   1.465       .  S
N274        N275   1.316       .  A
N274        N280   1.310       .  A
N274       Mn303   2.167       .  S
N275        C282   1.351       .  A
N276        N278   1.312       .  A
N276        N277   1.318   1_565  A
N276       Mn292   2.179       .  S
N277        C283   1.351       .  A
N278        N279   1.315   1_565  A
N278       Mn303   2.173       .  S
N279        C283   1.350       .  A
N280        N281   1.318       .  A
N280       Mn292   2.182       .  S
N281        C282   1.351       .  A
C282       C1396   1.468       .  S
C283       C1376   1.462       .  S
N284        N290   1.320       .  A
N284        N285   1.331   1_565  A
N284       Mn314   2.247       .  S
N285        C293   1.362       .  A
N286        N287   1.310       .  A
N286        N288   1.318       .  A
N286       Mn292   2.169       .  S
N287        C294   1.342       .  A
N288        N289   1.328       .  A
N288       Mn314   2.234       .  S
N289        C294   1.362       .  A
N290        N291   1.314   1_565  A
N290       Mn292   2.177       .  S
N291        C293   1.342       .  A
Mn292      Cl316   2.487       .  S
C293       C1406   1.483       .  S
C294       C1436   1.477       .  S
N295        N296   1.315   1_565  A
N295        N301   1.311       .  A
N295       Mn303   2.169       .  S
N296        C304   1.350       .  A
N297        N299   1.311       .  A
N297        N298   1.322       .  A
N297       Mn315   2.203       .  S
N298        C305   1.355       .  A
N299        N300   1.317       .  A
N299       Mn303   2.175       .  S
N300        C305   1.350       .  A
N301        N302   1.321   1_565  A
N301       Mn315   2.194       .  S
N302        C304   1.354       .  A
Mn303      Cl316   2.584       .  S
C304       C1386   1.473       .  S
C305       C1366   1.477       .  S
N306        N307   1.325       .  A
N306        N312   1.319       .  A
N306       Mn314   2.228       .  S
N307        C317   1.357       .  A
N308        N309   1.314   1_565  A
N308        N310   1.322       .  A
N308       Mn315   2.190       .  S
N309        C318   1.343       .  A
N310        N311   1.329   1_565  A
N310       Mn314   2.246       .  S
N311        C318   1.361       .  A
N312        N313   1.313       .  A
N312       Mn315   2.176       .  S
N313        C317   1.342       .  A
Mn314      Cl316   2.589       .  S
Mn315      Cl316   2.491       .  S
C317       C1416   1.466       .  S
C318       C1429   1.476       .  S
C319        C320   1.389       .  D
C319       C1356   1.551       .  S
C319       C2116   1.503       .  S
C320       C1439   1.491       .  S
C320       C1996   1.525       .  S
C321        C322   1.379       .  D
C321       C1486   1.495       .  S
C321       C2059   1.507       .  S
C322       C1346   1.504       .  S
C322       C1426   1.498       .  S
C323        C324   1.395       .  D
C323       C1326   1.523       .  S
C323       C1336   1.511       .  S
C324       C1316   1.533       .  S
C324       C1419   1.503       .  S
N325        N326   1.333       .  A
N325        N331   1.319       .  A
N325       Mn354   2.270       .  S
N326        C333   1.367       .  A
N327        N329   1.321       .  A
N327        N328   1.315       .  A
N327       Mn343   2.186   1_554  S
N328        C334   1.343       .  A
N329        N330   1.327       .  A
N329       Mn354   2.237   1_554  S
N330        C334   1.359       .  A
N331        N332   1.311       .  A
N331       Mn343   2.159       .  S
N332        C333   1.339       .  A
C333       C1359   1.479       .  S
C334       C1306   1.471       .  S
N335        N341   1.310       .  A
N335        N336   1.316       .  A
N335       Mn365   2.175       .  S
N336        C344   1.351       .  A
N337        N338   1.319       .  A
N337        N339   1.311       .  A
N337       Mn343   2.185       .  S
N338        C345   1.351       .  A
N339        N340   1.319       .  A
N339       Mn365   2.182   1_556  S
N340        C345   1.353       .  A
N341        N342   1.318       .  A
N341       Mn343   2.174   1_554  S
N342        C344   1.351       .  A
Mn343      Cl367   2.489       .  S
C344       C1266   1.467       .  S
C345       C1279   1.476       .  S
N346        N347   1.333       .  A
N346        N352   1.321       .  A
N346       Mn354   2.270   1_554  S
N347        C355   1.365       .  A
N348        N350   1.320       .  A
N348        N349   1.314       .  A
N348       Mn366   2.190       .  S
N349        C356   1.344       .  A
N350        N351   1.326       .  A
N350       Mn354   2.231       .  S
N351        C356   1.360       .  A
N352        N353   1.313       .  A
N352       Mn366   2.172   1_554  S
N353        C355   1.341       .  A
Mn354      Cl367   2.592       .  S
C355       C1296   1.485       .  S
C356       C1339   1.473       .  S
N357        N358   1.318       .  A
N357        N363   1.311       .  A
N357       Mn365   2.175   1_556  S
N358        C368   1.352       .  A
N359        N360   1.325       .  A
N359        N361   1.312       .  A
N359       Mn366   2.207   1_554  S
N360        C369   1.357       .  A
N361        N362   1.316       .  A
N361       Mn365   2.180       .  S
N362        C369   1.350       .  A
N363        N364   1.319       .  A
N363       Mn366   2.185       .  S
N364        C368   1.351       .  A
Mn365      Cl367   2.585   1_554  S
Mn366      Cl367   2.489       .  S
C368       C1286   1.472       .  S
C369       C1256   1.482       .  S
C370        C371   1.383       .  D
C370       C1246   1.500       .  S
C370       C2369   1.525       .  S
C371       C1309   1.502       .  S
C371       C2109   1.504       .  S
C372        C373   1.382       .  D
C372       C1519   1.492       .  S
C372       C2479   1.533       .  S
C373       C1409   1.508       .  S
C373       C1989   1.492       .  S
C374        C375   1.377       .  D
C374       C1239   1.494       .  S
C374       C1899   1.506       .  S
C375       C1229   1.506       .  S
C375       C1299   1.506       .  S
N376        N377   1.327       .  A
N376        N382   1.318       .  A
N376       Mn405   2.227       .  S
N377        C384   1.360       .  A
N378        N380   1.320       .  A
N378        N379   1.315   1_565  A
N378       Mn394   2.182       .  S
N379        C385   1.344       .  A
N380        N381   1.329   1_565  A
N380       Mn405   2.244       .  S
N381        C385   1.360       .  A
N382        N383   1.311       .  A
N382       Mn394   2.175       .  S
N383        C384   1.343       .  A
C384       C1249   1.472       .  S
C385       C1219   1.480       .  S
N386        N392   1.312       .  A
N386        N387   1.315   1_565  A
N386       Mn416   2.175       .  S
N387        C395   1.350       .  A
N388        N389   1.320       .  A
N388        N390   1.312       .  A
N388       Mn394   2.187       .  S
N389        C396   1.350       .  A
N390        N391   1.320       .  A
N390       Mn416   2.193       .  S
N391        C396   1.354       .  A
N392        N393   1.321   1_565  A
N392       Mn394   2.190       .  S
N393        C395   1.353       .  A
Mn394      Cl418   2.498       .  S
C395       C1186   1.470       .  S
C396       C1166   1.475       .  S
N397        N398   1.325   1_565  A
N397        N403   1.320       .  A
N397       Mn405   2.228       .  S
N398        C406   1.358       .  A
N399        N401   1.320       .  A
N399        N400   1.316       .  A
N399       Mn417   2.184       .  S
N400        C407   1.344       .  A
N401        N402   1.327       .  A
N401       Mn405   2.237       .  S
N402        C407   1.359       .  A
N403        N404   1.314   1_565  A
N403       Mn417   2.181       .  S
N404        C406   1.343       .  A
Mn405      Cl418   2.590       .  S
C406       C1209   1.466       .  S
C407       C1236   1.473       .  S
N408        N409   1.317       .  A
N408        N414   1.312       .  A
N408       Mn416   2.181       .  S
N409        C419   1.351       .  A
N410        N411   1.320   1_565  A
N410        N412   1.312       .  A
N410       Mn417   2.195       .  S
N411        C420   1.352       .  A
N412        N413   1.322   1_565  A
N412       Mn416   2.200       .  S
N413        C420   1.355       .  A
N414        N415   1.322       .  A
N414       Mn417   2.199       .  S
N415        C419   1.355       .  A
Mn416      Cl418   2.570       .  S
Mn417      Cl418   2.499       .  S
C419       C1196   1.480       .  S
C420       C1176   1.485       .  S
N421        N422   1.316       .  A
N421        N427   1.311       .  A
N421       Mn450   2.174       .  S
N422        C429   1.351       .  A
N423        N425   1.312       .  A
N423        N424   1.320   1_565  A
N423       Mn439   2.191       .  S
N424        C430   1.353       .  A
N425        N426   1.318   1_565  A
N425       Mn450   2.185       .  S
N426        C430   1.352       .  A
N427        N428   1.321       .  A
N427       Mn439   2.191       .  S
N428        C429   1.353       .  A
C429       C1119   1.469       .  S
C430       C1096   1.474       .  S
N431        N437   1.320       .  A
N431        N432   1.326   1_565  A
N431       Mn461   2.230       .  S
N432        C440   1.357       .  A
N433        N434   1.313       .  A
N433        N435   1.321       .  A
N433       Mn439   2.175       .  S
N434        C441   1.340       .  A
N435        N436   1.331       .  A
N435       Mn461   2.258       .  S
N436        C441   1.363       .  A
N437        N438   1.317   1_565  A
N437       Mn439   2.191       .  S
N438        C440   1.345       .  A
Mn439      Cl463   2.496       .  S
C440       C1129   1.473       .  S
C441       C1156   1.476       .  S
N442        N443   1.318   1_565  A
N442        N448   1.311       .  A
N442       Mn450   2.185       .  S
N443        C451   1.352       .  A
N444        N446   1.312       .  A
N444        N445   1.320       .  A
N444       Mn462   2.192       .  S
N445        C452   1.352       .  A
N446        N447   1.322       .  A
N446       Mn450   2.199       .  S
N447        C452   1.355       .  A
N448        N449   1.323   1_565  A
N448       Mn462   2.194       .  S
N449        C451   1.354       .  A
Mn450      Cl463   2.582       .  S
C451       C1106   1.479       .  S
C452       C1086   1.482       .  S
N453        N454   1.331       .  A
N453        N459   1.321       .  A
N453       Mn461   2.252       .  S
N454        C464   1.362       .  A
N455        N456   1.313   1_565  A
N455        N457   1.319       .  A
N455       Mn462   2.179       .  S
N456        C465   1.344       .  A
N457        N458   1.328   1_565  A
N457       Mn461   2.241       .  S
N458        C465   1.361       .  A
N459        N460   1.314       .  A
N459       Mn462   2.181       .  S
N460        C464   1.342       .  A
Mn461      Cl463   2.589       .  S
Mn462      Cl463   2.499       .  S
C464       C1139   1.482       .  S
C465       C1146   1.476       .  S
N466        N467   1.320   1_655  A
N466        N472   1.313   1_655  A
N466       Mn495   2.192       .  S
N467        C474   1.353       .  A
N468        N470   1.311       .  A
N468        N469   1.321       .  A
N468       Mn484   2.193       .  S
N469        C475   1.353       .  A
N470        N471   1.318       .  A
N470       Mn495   2.178       .  S
N471        C475   1.351       .  A
N472        N473   1.321       .  A
N472       Mn484   2.197   1_455  S
N473        C474   1.353       .  A
C474       C1036   1.480       .  S
C475       C1006   1.478       .  S
N476        N482   1.319       .  A
N476        N477   1.326       .  A
N476       Mn506   2.233       .  S
N477        C485   1.360       .  A
N478        N479   1.314   1_655  A
N478        N480   1.320       .  A
N478       Mn484   2.180       .  S
N479        C486   1.343       .  A
N480        N481   1.330   1_655  A
N480       Mn506   2.246       .  S
N481        C486   1.361       .  A
N482        N483   1.313       .  A
N482       Mn484   2.181       .  S
N483        C485   1.344       .  A
Mn484      Cl508   2.494       .  S
C485       C1046   1.475       .  S
C486       C1076   1.483       .  S
N487        N488   1.318       .  A
N487        N493   1.312       .  A
N487       Mn495   2.185       .  S
N488        C496   1.352       .  A
N489        N491   1.310       .  A
N489        N490   1.318   1_655  A
N489       Mn507   2.181       .  S
N490        C497   1.352       .  A
N491        N492   1.316   1_655  A
N491       Mn495   2.175       .  S
N492        C497   1.351       .  A
N493        N494   1.317       .  A
N493       Mn507   2.182       .  S
N494        C496   1.351       .  A
Mn495      Cl508   2.574       .  S
C496       C1029   1.471       .  S
C497       C1016   1.469       .  S
N498        N499   1.329   1_655  A
N498        N504   1.321       .  A
N498       Mn506   2.247       .  S
N499        C509   1.361       .  A
N500        N501   1.315       .  A
N500        N502   1.318       .  A
N500       Mn507   2.179       .  S
N501        C510   1.343       .  A
N502        N503   1.327       .  A
N502       Mn506   2.230       .  S
N503        C510   1.358       .  A
N504        N505   1.313   1_655  A
N504       Mn507   2.175       .  S
N505        C509   1.340       .  A
Mn506      Cl508   2.594       .  S
Mn507      Cl508   2.492       .  S
C509       C1059   1.470       .  S
C510       C1069   1.471       .  S
C511        C512   1.389       .  D
C511       C1049   1.503       .  S
C511       C2416   1.531       .  S
C512        C999   1.505       .  S
C512       C1919   1.510       .  S
N513        N514   1.317   1_565  A
N513        N519   1.311       .  A
N513       Mn542   2.170       .  S
N514        C521   1.350       .  A
N515        N517   1.311       .  A
N515        N516   1.317       .  A
N515       Mn531   2.173       .  S
N516        C522   1.350       .  A
N517        N518   1.315       .  A
N517       Mn542   2.177       .  S
N518        C522   1.352       .  A
N519        N520   1.321   1_565  A
N519       Mn531   2.203       .  S
N520        C521   1.355       .  A
C521        C946   1.475       .  S
C522        C926   1.465       .  S
N523        N529   1.322       .  A
N523        N524   1.331       .  A
N523       Mn553   2.254       .  S
N524        C532   1.363       .  A
N525        N526   1.312   1_565  A
N525        N527   1.319       .  A
N525       Mn531   2.160       .  S
N526        C533   1.339       .  A
N527        N528   1.329   1_565  A
N527       Mn553   2.252       .  S
N528        C533   1.362       .  A
N529        N530   1.318       .  A
N529       Mn531   2.205       .  S
N530        C532   1.346       .  A
Mn531      Cl555   2.496       .  S
C532        C966   1.492       .  S
C533        C996   1.471       .  S
N534        N535   1.317       .  A
N534        N540   1.312       .  A
N534       Mn542   2.181       .  S
N535        C543   1.350       .  A
N536        N538   1.311       .  A
N536        N537   1.321   1_565  A
N536       Mn554   2.201       .  S
N537        C544   1.354       .  A
N538        N539   1.320   1_565  A
N538       Mn542   2.183       .  S
N539        C544   1.353       .  A
N540        N541   1.322       .  A
N540       Mn554   2.200       .  S
N541        C543   1.355       .  A
Mn542      Cl555   2.577       .  S
C543        C956   1.477       .  S
C544        C936   1.482       .  S
N545        N546   1.325   1_565  A
N545        N551   1.320       .  A
N545       Mn553   2.231       .  S
N546        C556   1.359       .  A
N547        N548   1.317       .  A
N547        N549   1.323       .  A
N547       Mn554   2.189       .  S
N548        C557   1.342       .  A
N549        N550   1.333       .  A
N549       Mn553   2.274       .  S
N550        C557   1.365       .  A
N551        N552   1.313   1_565  A
N551       Mn554   2.177       .  S
N552        C556   1.343       .  A
Mn553      Cl555   2.599       .  S
Mn554      Cl555   2.500       .  S
C556        C976   1.472       .  S
C557        C986   1.491       .  S
C558        C559   1.384       .  D
C558        C906   1.489       .  S
C558        C989   1.520       .  S
C559        C896   1.539       .  S
C559        C916   1.488       .  S
N560        N561   1.326       .  A
N560        N566   1.320       .  A
N560       Mn589   2.231       .  S
N561        C568   1.358       .  A
N562        N564   1.320       .  A
N562        N563   1.313       .  A
N562       Mn578   2.177       .  S
N563        C569   1.342       .  A
N564        N565   1.331       .  A
N564       Mn589   2.256       .  S
N565        C569   1.363       .  A
N566        N567   1.315       .  A
N566       Mn578   2.195       .  S
N567        C568   1.346       .  A
C568        C836   1.471       .  S
C569        C856   1.483       .  S
N570        N576   1.313       .  A
N570        N571   1.314       .  A
N570       Mn600   2.167       .  S
N571        C579   1.348       .  A
N572        N573   1.322       .  A
N572        N574   1.311       .  A
N572       Mn578   2.199       .  S
N573        C580   1.356       .  A
N574        N575   1.313       .  A
N574       Mn600   2.159       .  S
N575        C580   1.347       .  A
N576        N577   1.324       .  A
N576       Mn578   2.213       .  S
N577        C579   1.357       .  A
Mn578      Cl602   2.499       .  S
C579        C886   1.477       .  S
C580        C919   1.470       .  S
N581        N582   1.329       .  A
N581        N587   1.321       .  A
N581       Mn589   2.245   1_455  S
N582        C590   1.362       .  A
N583        N585   1.319       .  A
N583        N584   1.313       .  A
N583       Mn601   2.175       .  S
N584        C591   1.343       .  A
N585        N586   1.329       .  A
N585       Mn589   2.245   1_455  S
N586        C591   1.362       .  A
N587        N588   1.313       .  A
N587       Mn601   2.181       .  S
N588        C590   1.342       .  A
Mn589      Cl602   2.597       .  S
C590        C826   1.478       .  S
C591        C846   1.481       .  S
N592        N593   1.317       .  A
N592        N598   1.311   1_655  A
N592       Mn600   2.175       .  S
N593        C603   1.351   1_655  A
N594        N595   1.320       .  A
N594        N596   1.310       .  A
N594       Mn601   2.190       .  S
N595        C604   1.354       .  A
N596        N597   1.316       .  A
N596       Mn600   2.169   1_455  S
N597        C604   1.350       .  A
N598        N599   1.320       .  A
N598       Mn601   2.195       .  S
N599        C603   1.354       .  A
Mn600      Cl602   2.571       .  S
Mn601      Cl602   2.495   1_455  S
C603        C879   1.474       .  S
C604        C866   1.472       .  S
C605        C606   1.386       .  D
C605        C969   1.518       .  S
C605       C1909   1.528       .  S
C606        C889   1.485       .  S
C606       C1959   1.500       .  S
C607        C608   1.371       .  D
C607       C1136   1.500       .  S
C607       C1969   1.492       .  S
C608        C816   1.496       .  S
C608        C876   1.482       .  S
C609        C610   1.388       .  D
C609       C1066   1.508       .  S
C609       C2019   1.522       .  S
C610        C806   1.521       .  S
C610        C979   1.503       .  S
C611        C612   1.388       .  D
C611        C869   1.491       .  S
C611       C1949   1.537       .  S
C612       C1159   1.508       .  S
C612       C2396   1.496       .  S
C613        C614   1.383       .  D
C613       C1079   1.502       .  S
C613       C2429   1.497       .  S
C614       C1126   1.502       .  S
C614       C2376   1.528       .  S
C615        C616   1.387       .  D
C615       C1149   1.505       .  S
C615       C1979   1.533       .  S
C616       C1056   1.503       .  S
C616       C2009   1.504       .  S
C617        C618   1.378       .  D
C617       C1089   1.500       .  S
C617       C2309   1.479       .  S
C618        C796   1.523       .  S
C618       C1399   1.485       .  S
C619        C620   1.383       .  D
C619       C1019   1.485       .  S
C619       C2566   1.530       .  S
C620       C1649   1.497       .  S
C620       C2139   1.483       .  S
C621        C622   1.382       .  D
C621       C1559   1.485       .  S
C621       C2239   1.527       .  S
C622       C1009   1.496       .  S
C622       C2349   1.485       .  S
C623        C624   1.385       .  D
C623       C1099   1.500       .  S
C623       C2579   1.508       .  S
C624       C1189   1.497       .  S
C624       C2509   1.518       .  S
C625        C626   1.380       .  D
C625       C1116   1.493       .  S
C625       C2319   1.518       .  S
C626       C1169   1.499       .  S
C626       C2266   1.494       .  S
C627        C628   1.371       .  D
C627       C1039   1.499       .  S
C627       C2599   1.473       .  S
C628       C1539   1.478       .  S
C628       C2529   1.516       .  S
C629        C630   1.365       .  D
C629       C1109   1.494       .  S
C629       C2586   1.489       .  S
C630       C1379   1.478       .  S
C630       C2169   1.483       .  S
C631        C632   1.387       .  D
C631       C1026   1.499       .  S
C631       C2359   1.504       .  S
C632        C786   1.523       .  S
C632       C1629   1.491       .  S
C633        C634   1.379       .  D
C633       C1216   1.500       .  S
C633       C2389   1.492       .  S
C634       C1499   1.496       .  S
C634       C2459   1.522       .  S
C635        C636   1.384       .  D
C635       C1506   1.497       .  S
C635       C2049   1.512       .  S
C636       C1206   1.501       .  S
C636       C1889   1.517       .  S
C637        C638   1.385       .  D
C637       C1476   1.507       .  S
C637       C2199   1.484       .  S
C638       C1806   1.485       .  S
C638       C2149   1.535       .  S
C639        C640   1.374       .  D
C639       C1446   1.487       .  S
C639       C2186   1.508       .  S
C640        C776   1.482       .  S
C640       C1756   1.492       .  S
C641        C642   1.384       .  D
C641        C766   1.528       .  S
C641        C929   1.487       .  S
C642       C1199   1.501       .  S
C642       C2276   1.491       .  S
C643        C644   1.380       .  D
C643       C1179   1.497       .  S
C643       C2486   1.480       .  S
C644        C949   1.491       .  S
C644       C2339   1.531       .  S
C645        C646   1.384       .  D
C645        C746   1.523       .  S
C645       C1746   1.489       .  S
C646        C756   1.494       .  S
C646       C1289   1.496       .  S
C647        C648   1.387       .  D
C647       C1856   1.504       .  S
C647       C2086   1.541       .  S
C648       C1576   1.503       .  S
C648       C1939   1.497       .  S
C649        C650   1.388       .  D
C649       C1569   1.498       .  S
C649       C2406   1.530       .  S
C650       C1869   1.508       .  S
C650       C2466   1.508       .  S
C651        C652   1.372       .  D
C651       C1839   1.490       .  S
C651       C2156   1.480       .  S
C652        C736   1.503       .  S
C652       C1276   1.485       .  S
C653        C654   1.365       .  D
C653        C829   1.496       .  S
C653       C2289   1.481       .  S
C654       C1549   1.483       .  S
C654       C2549   1.497       .  S
C655        C656   1.367       .  D
C655        C726   1.474       .  S
C655        C859   1.501       .  S
C656       C1529   1.472       .  S
C656       C2229   1.501       .  S
C657        C658   1.378       .  D
C657        C716   1.482       .  S
C657       C1659   1.483       .  S
C658        C706   1.527       .  S
C658        C839   1.499       .  S
C659        C660   1.381       .  D
C659        C939   1.502       .  S
C659       C2329   1.487       .  S
C660       C1389   1.491       .  S
C660       C2179   1.527       .  S
C661        C662   1.359       .  D
C661        C696   1.483       .  S
C661        C959   1.485       .  S
C662        C686   1.476       .  S
C662       C1369   1.482       .  S
C663        C664   1.385       .  D
C663        C849   1.513       .  S
C663       C2299   1.512       .  S
C664       C1639   1.480       .  S
C664       C2129   1.512       .  S
C665        C666   1.382       .  D
C665       C1596   1.509       .  S
C665       C1619   1.523       .  S
C666        C819   1.512       .  S
C666        C899   1.509       .  S
C667        C668   1.389       .  D
C667        C809   1.530       .  S
C667        C909   1.517       .  S
C668       C1319   1.511       .  S
C668       C1349   1.509       .  S
C669        C670   1.383       .  D
C669       C1609   1.508       .  S
C669       C1699   1.537   1_556  S
C670       C1226   1.511   1_556  S
C670       C1329   1.526       .  S
C671        C672   1.372       .  D
C671        C689   1.524       .  S
C671        C799   1.501       .  S
C672        C739   1.488       .  S
C672        C759   1.482       .  S
C673        C674   1.370       .  D
C673        C749   1.498       .  S
C673        C779   1.509       .  S
C674        C719   1.508       .  S
C674        C789   1.489       .  S
C675        C676   1.367       .  D
C675        C699   1.501       .  S
C675        C769   1.495       .  S
C676        C709   1.487       .  S
C676        C729   1.500       .  S
C677        C678   1.373       .  D
C677       C1726   1.492       .  S
C677       C2209   1.483       .  S
C678       C1469   1.535       .  S
C678       C2519   1.499       .  S
C679        C680   1.377       .  D
C679       C1259   1.495       .  S
C679       C2246   1.480       .  S
C680       C1736   1.493       .  S
C680       C2216   1.525       .  S
C681        C682   1.380       .  D
C681       C1819   1.501       .  S
C681       C2539   1.487       .  S
C682       C1269   1.487       .  S
C682       C2256   1.525       .  S
C683        C684   1.382       .  D
C683       C1829   1.482       .  S
C683       C2556   1.529       .  S
C684       C1456   1.503       .  S
C684       C2496   1.480       .  S
C685        C686   1.398       .  A
C685        C690   1.395       .  A
C685        H692   1.083       .  S
C686        C687   1.395       .  A
C687        C688   1.396       .  A
C687        F694   1.358       .  S
C688        C689   1.416       .  A
C688        H693   1.071       .  S
C689        C690   1.416       .  A
C690        F691   1.358       .  S
C695        C696   1.404       .  A
C695        C700   1.396       .  A
C695        H702   1.078       .  S
C696        C697   1.401       .  A
C697        C698   1.392       .  A
C697        F704   1.357       .  S
C698        C699   1.410       .  A
C698        H703   1.078       .  S
C699        C700   1.406       .  A
C700        F701   1.358       .  S
C705        C706   1.419       .  A
C705        C710   1.405       .  A
C705        H712   1.071       .  S
C706        C707   1.424       .  A
C707        C708   1.384       .  A
C707        F714   1.355       .  S
C708        C709   1.392       .  A
C708        H713   1.084       .  S
C709        C710   1.400       .  A
C710        F711   1.357       .  S
C715        C716   1.404       .  A
C715        C720   1.402       .  A
C715        H722   1.083       .  S
C716        C717   1.403       .  A
C717        C718   1.391       .  A
C717        F724   1.356       .  S
C718        C719   1.409       .  A
C718        H723   1.079       .  S
C719        C720   1.412       .  A
C720        F721   1.358       .  S
C725        C726   1.394       .  A
C725        C730   1.387       .  A
C725        H732   1.081       .  S
C726        C727   1.404       .  A
C727        C728   1.400       .  A
C727        F734   1.356       .  S
C728        C729   1.411       .  A
C728        H733   1.078       .  S
C729        C730   1.411       .  A
C730        F731   1.358       .  S
C735        C736   1.407       .  A
C735        C740   1.391       .  A
C735        H742   1.067       .  S
C736        C737   1.414       .  A
C737        C738   1.398       .  A
C737        F744   1.356       .  S
C738        C739   1.403       .  A
C738        H743   1.083       .  S
C739        C740   1.397       .  A
C740        F741   1.355       .  S
C745        C746   1.418       .  A
C745        C750   1.374       .  A
C745        H752   1.079       .  S
C746        C747   1.418       .  A
C747        C748   1.415       .  A
C747        F754   1.354       .  S
C748        C749   1.410       .  A
C748        H753   1.082       .  S
C749        C750   1.395       .  A
C750        F751   1.359       .  S
C755        C756   1.408       .  A
C755        C760   1.405       .  A
C755        H762   1.082       .  S
C756        C757   1.414       .  A
C757        C758   1.386       .  A
C757        F764   1.357       .  S
C758        C759   1.398       .  A
C758        H763   1.084       .  S
C759        C760   1.409       .  A
C760        F761   1.354       .  S
C765        C766   1.417       .  A
C765        C770   1.375       .  A
C765        H772   1.078       .  S
C766        C767   1.420       .  A
C767        C768   1.418       .  A
C767        F774   1.354       .  S
C768        C769   1.410       .  A
C768        H773   1.082       .  S
C769        C770   1.395       .  A
C770        F771   1.358       .  S
C775        C776   1.402       .  A
C775        C780   1.403       .  A
C775        H782   1.084       .  S
C776        C777   1.402       .  A
C777        C778   1.387       .  A
C777        F784   1.357       .  S
C778        C779   1.405       .  A
C778        H783   1.084       .  S
C779        C780   1.421       .  A
C780        F781   1.353       .  S
C785        C786   1.415       .  A
C785        C790   1.414       .  A
C785        H792   1.078       .  S
C786        C787   1.427       .  A
C787        C788   1.375       .  A
C787        F794   1.356       .  S
C788        C789   1.391       .  A
C788        H793   1.084       .  S
C789        C790   1.408       .  A
C790        F791   1.356       .  S
C795        C796   1.417       .  A
C795        C800   1.383       .  A
C795        H802   1.079       .  S
C796        C797   1.419       .  A
C797        C798   1.410       .  A
C797        F804   1.353       .  S
C798        C799   1.407       .  A
C798        H803   1.082       .  S
C799        C800   1.397       .  A
C800        F801   1.359       .  S
C805        C806   1.405   1_565  A
C805        C810   1.382       .  A
C805        H812   1.081       .  S
C806        C807   1.418       .  A
C807        C808   1.426       .  A
C807        F814   1.356       .  S
C808        C809   1.419   1_545  A
C808        H813   1.081       .  S
C809        C810   1.411       .  A
C810        F811   1.355       .  S
C815        C816   1.402       .  A
C815        C820   1.397   1_455  A
C815        H822   1.072       .  S
C816        C817   1.408       .  A
C817        C818   1.403       .  A
C817        F824   1.356       .  S
C818        C819   1.411   1_455  A
C818        H823   1.080       .  S
C819        C820   1.409       .  A
C820        F821   1.358       .  S
C825        C826   1.405       .  A
C825        C830   1.405       .  A
C825        H832   1.083       .  S
C826        C827   1.408       .  A
C827        C828   1.396       .  A
C827        F834   1.358       .  S
C828        C829   1.401       .  A
C828        H833   1.082       .  S
C829        C830   1.409       .  A
C830        F831   1.357       .  S
C835        C836   1.404       .  A
C835        C840   1.400       .  A
C835        H842   1.083       .  S
C836        C837   1.405       .  A
C837        C838   1.398       .  A
C837        F844   1.357       .  S
C838        C839   1.403       .  A
C838        H843   1.083       .  S
C839        C840   1.407       .  A
C840        F841   1.358       .  S
C845        C846   1.403       .  A
C845        C850   1.402       .  A
C845        H852   1.083       .  S
C846        C847   1.411       .  A
C847        C848   1.399       .  A
C847        F854   1.358       .  S
C848        C849   1.400       .  A
C848        H853   1.083       .  S
C849        C850   1.412       .  A
C850        F851   1.357       .  S
C855        C856   1.405       .  A
C855        C860   1.407       .  A
C855        H862   1.083       .  S
C856        C857   1.409       .  A
C857        C858   1.398       .  A
C857        F864   1.358       .  S
C858        C859   1.402       .  A
C858        H863   1.082       .  S
C859        C860   1.409       .  A
C860        F861   1.357       .  S
C865        C866   1.404       .  A
C865        C870   1.390       .  A
C865        H872   1.083       .  S
C866        C867   1.409       .  A
C867        C868   1.397       .  A
C867        F874   1.357       .  S
C868        C869   1.401       .  A
C868        H873   1.083       .  S
C869        C870   1.402       .  A
C870        F871   1.358       .  S
C875        C876   1.399       .  A
C875        C880   1.394       .  A
C875        H882   1.083       .  S
C876        C877   1.404       .  A
C877        C878   1.395       .  A
C877        F884   1.357       .  S
C878        C879   1.404       .  A
C878        H883   1.083       .  S
C879        C880   1.409       .  A
C880        F881   1.357   1_455  S
C885        C886   1.407       .  A
C885        C890   1.391       .  A
C885        H892   1.083       .  S
C886        C887   1.407       .  A
C887        C888   1.400       .  A
C887        F894   1.357       .  S
C888        C889   1.405       .  A
C888        H893   1.083       .  S
C889        C890   1.400       .  A
C890        F891   1.356       .  S
C895        C896   1.418       .  A
C895        C900   1.384       .  A
C895        H902   1.079       .  S
C896        C897   1.425       .  A
C897        C898   1.421       .  A
C897        F904   1.352       .  S
C898        C899   1.410       .  A
C898        H903   1.083       .  S
C899        C900   1.400       .  A
C900        F901   1.358       .  S
C905        C906   1.399       .  A
C905        C910   1.394       .  A
C905        H912   1.084       .  S
C906        C907   1.406       .  A
C907        C908   1.407       .  A
C907        F914   1.357       .  S
C908        C909   1.414       .  A
C908        H913   1.083       .  S
C909        C910   1.415       .  A
C910        F911   1.347       .  S
C915        C916   1.399       .  A
C915        C920   1.387       .  A
C915        H922   1.083       .  S
C916        C917   1.403       .  A
C917        C918   1.398       .  A
C917        F924   1.357       .  S
C918        C919   1.405       .  A
C918        H923   1.083       .  S
C919        C920   1.408       .  A
C920        F921   1.358       .  S
C925        C926   1.401       .  A
C925        C930   1.386       .  A
C925        H932   1.083       .  S
C926        C927   1.410       .  A
C927        C928   1.395       .  A
C927        F934   1.357       .  S
C928        C929   1.398       .  A
C928        H933   1.083       .  S
C929        C930   1.403       .  A
C930        F931   1.358       .  S
C935        C936   1.407       .  A
C935        C940   1.399       .  A
C935        H942   1.083       .  S
C936        C937   1.409       .  A
C937        C938   1.397       .  A
C937        F944   1.357       .  S
C938        C939   1.403       .  A
C938        H943   1.083       .  S
C939        C940   1.403       .  A
C940        F941   1.357       .  S
C945        C946   1.406       .  A
C945        C950   1.393       .  A
C945        H952   1.083       .  S
C946        C947   1.408       .  A
C947        C948   1.397       .  A
C947        F954   1.357       .  S
C948        C949   1.403       .  A
C948        H953   1.083       .  S
C949        C950   1.402       .  A
C950        F951   1.358       .  S
C955        C956   1.405       .  A
C955        C960   1.399       .  A
C955        H962   1.083       .  S
C956        C957   1.410       .  A
C957        C958   1.394       .  A
C957        F964   1.357       .  S
C958        C959   1.399       .  A
C958        H963   1.083       .  S
C959        C960   1.405       .  A
C960        F961   1.357       .  S
C965        C966   1.406       .  A
C965        C970   1.403       .  A
C965        H972   1.083       .  S
C966        C967   1.409       .  A
C967        C968   1.410       .  A
C967        F974   1.356       .  S
C968        C969   1.408       .  A
C968        H973   1.083       .  S
C969        C970   1.408       .  A
C970        F971   1.357       .  S
C975        C976   1.408       .  A
C975        C980   1.397       .  A
C975        H982   1.083       .  S
C976        C977   1.404       .  A
C977        C978   1.396       .  A
C977        F984   1.357       .  S
C978        C979   1.407       .  A
C978        H983   1.083       .  S
C979        C980   1.400       .  A
C980        F981   1.357       .  S
C985        C986   1.407       .  A
C985        C990   1.410       .  A
C985        H992   1.083       .  S
C986        C987   1.408       .  A
C987        C988   1.406       .  A
C987        F994   1.357       .  S
C988        C989   1.407       .  A
C988        H993   1.083       .  S
C989        C990   1.410       .  A
C990        F991   1.357       .  S
C995        C996   1.403       .  A
C995       C1000   1.397       .  A
C995       H1002   1.083       .  S
C996        C997   1.406       .  A
C997        C998   1.403       .  A
C997       F1004   1.356   1_545  S
C998        C999   1.405       .  A
C998       H1003   1.083       .  S
C999       C1000   1.408       .  A
C1000      F1001   1.357       .  S
C1005      C1006   1.405       .  A
C1005      C1010   1.397       .  A
C1005      H1012   1.083       .  S
C1006      C1007   1.409       .  A
C1007      C1008   1.395       .  A
C1007      F1014   1.356       .  S
C1008      C1009   1.401       .  A
C1008      H1013   1.083       .  S
C1009      C1010   1.405       .  A
C1010      F1011   1.357       .  S
C1015      C1016   1.407       .  A
C1015      C1020   1.396       .  A
C1015      H1022   1.083       .  S
C1016      C1017   1.406       .  A
C1017      C1018   1.389       .  A
C1017      F1024   1.357       .  S
C1018      C1019   1.401       .  A
C1018      H1023   1.083       .  S
C1019      C1020   1.402       .  A
C1020      F1021   1.357       .  S
C1025      C1026   1.403       .  A
C1025      C1030   1.393       .  A
C1025      H1032   1.083       .  S
C1026      C1027   1.402       .  A
C1027      C1028   1.393       .  A
C1027      F1034   1.357       .  S
C1028      C1029   1.404       .  A
C1028      H1033   1.081       .  S
C1029      C1030   1.407       .  A
C1030      F1031   1.357       .  S
C1035      C1036   1.405       .  A
C1035      C1040   1.398       .  A
C1035      H1042   1.083       .  S
C1036      C1037   1.409       .  A
C1037      C1038   1.397       .  A
C1037      F1044   1.355       .  S
C1038      C1039   1.401       .  A
C1038      H1043   1.083       .  S
C1039      C1040   1.407       .  A
C1040      F1041   1.357       .  S
C1045      C1046   1.407       .  A
C1045      C1050   1.395       .  A
C1045      H1052   1.083       .  S
C1046      C1047   1.406       .  A
C1047      C1048   1.399       .  A
C1047      F1054   1.357       .  S
C1048      C1049   1.409       .  A
C1048      H1053   1.083       .  S
C1049      C1050   1.401       .  A
C1050      F1051   1.357       .  S
C1055      C1056   1.406       .  A
C1055      C1060   1.399       .  A
C1055      H1062   1.083       .  S
C1056      C1057   1.407       .  A
C1057      C1058   1.402       .  A
C1057      F1064   1.357   1_455  S
C1058      C1059   1.404       .  A
C1058      H1063   1.083   1_455  S
C1059      C1060   1.404       .  A
C1060      F1061   1.357       .  S
C1065      C1066   1.405       .  A
C1065      C1070   1.398       .  A
C1065      H1072   1.083       .  S
C1066      C1067   1.406       .  A
C1067      C1068   1.401       .  A
C1067      F1074   1.357       .  S
C1068      C1069   1.404       .  A
C1068      H1073   1.083       .  S
C1069      C1070   1.405       .  A
C1070      F1071   1.358       .  S
C1075      C1076   1.405       .  A
C1075      C1080   1.406       .  A
C1075      H1082   1.083       .  S
C1076      C1077   1.409       .  A
C1077      C1078   1.398       .  A
C1077      F1084   1.358       .  S
C1078      C1079   1.403       .  A
C1078      H1083   1.082       .  S
C1079      C1080   1.409       .  A
C1080      F1081   1.357       .  S
C1085      C1086   1.407       .  A
C1085      C1090   1.398       .  A
C1085      H1092   1.083       .  S
C1086      C1087   1.409       .  A
C1087      C1088   1.399       .  A
C1087      F1094   1.357       .  S
C1088      C1089   1.404       .  A
C1088      H1093   1.083       .  S
C1089      C1090   1.404       .  A
C1090      F1091   1.357       .  S
C1095      C1096   1.404       .  A
C1095      C1100   1.393       .  A
C1095      H1102   1.080       .  S
C1096      C1097   1.407       .  A
C1097      C1098   1.396       .  A
C1097      F1104   1.357       .  S
C1098      C1099   1.405       .  A
C1098      H1103   1.083       .  S
C1099      C1100   1.401       .  A
C1100      F1101   1.357       .  S
C1105      C1106   1.403       .  A
C1105      C1110   1.393       .  A
C1105      H1112   1.079       .  S
C1106      C1107   1.408       .  A
C1107      C1108   1.402       .  A
C1107      F1114   1.357       .  S
C1108      C1109   1.406       .  A
C1108      H1113   1.083       .  S
C1109      C1110   1.402       .  A
C1110      F1111   1.357       .  S
C1115      C1116   1.402       .  A
C1115      C1120   1.399       .  A
C1115      H1122   1.083       .  S
C1116      C1117   1.406       .  A
C1117      C1118   1.389       .  A
C1117      F1124   1.357       .  S
C1118      C1119   1.401       .  A
C1118      H1123   1.083       .  S
C1119      C1120   1.408       .  A
C1120      F1121   1.357       .  S
C1125      C1126   1.406       .  A
C1125      C1130   1.399       .  A
C1125      H1132   1.083       .  S
C1126      C1127   1.404       .  A
C1127      C1128   1.402       .  A
C1127      F1134   1.357   1_545  S
C1128      C1129   1.405       .  A
C1128      H1133   1.083   1_545  S
C1129      C1130   1.404       .  A
C1130      F1131   1.357       .  S
C1135      C1136   1.402       .  A
C1135      C1140   1.399       .  A
C1135      H1142   1.082       .  S
C1136      C1137   1.409       .  A
C1137      C1138   1.407       .  A
C1137      F1144   1.357       .  S
C1138      C1139   1.405       .  A
C1138      H1143   1.083       .  S
C1139      C1140   1.408       .  A
C1140      F1141   1.358       .  S
C1145      C1146   1.403       .  A
C1145      C1150   1.401       .  A
C1145      H1152   1.083       .  S
C1146      C1147   1.410       .  A
C1147      C1148   1.396       .  A
C1147      F1154   1.358       .  S
C1148      C1149   1.399       .  A
C1148      H1153   1.083       .  S
C1149      C1150   1.410       .  A
C1150      F1151   1.357       .  S
C1155      C1156   1.405       .  A
C1155      C1160   1.405       .  A
C1155      H1162   1.083       .  S
C1156      C1157   1.406       .  A
C1157      C1158   1.400       .  A
C1157      F1164   1.357       .  S
C1158      C1159   1.404       .  A
C1158      H1163   1.083       .  S
C1159      C1160   1.408       .  A
C1160      F1161   1.357       .  S
C1165      C1166   1.402       .  A
C1165      C1170   1.393       .  A
C1165      H1172   1.078       .  S
C1166      C1167   1.407       .  A
C1167      C1168   1.399       .  A
C1167      F1174   1.357       .  S
C1168      C1169   1.406       .  A
C1168      H1173   1.083       .  S
C1169      C1170   1.403       .  A
C1170      F1171   1.358       .  S
C1175      C1176   1.406       .  A
C1175      C1180   1.399       .  A
C1175      H1182   1.083       .  S
C1176      C1177   1.411       .  A
C1177      C1178   1.399       .  A
C1177      F1184   1.357       .  S
C1178      C1179   1.401       .  A
C1178      H1183   1.083       .  S
C1179      C1180   1.405       .  A
C1180      F1181   1.357       .  S
C1185      C1186   1.403       .  A
C1185      C1190   1.387       .  A
C1185      H1192   1.083       .  S
C1186      C1187   1.409       .  A
C1187      C1188   1.399       .  A
C1187      F1194   1.357       .  S
C1188      C1189   1.401       .  A
C1188      H1193   1.083       .  S
C1189      C1190   1.404       .  A
C1190      F1191   1.358       .  S
C1195      C1196   1.406       .  A
C1195      C1200   1.400       .  A
C1195      H1202   1.083       .  S
C1196      C1197   1.409       .  A
C1197      C1198   1.393       .  A
C1197      F1204   1.356       .  S
C1198      C1199   1.400       .  A
C1198      H1203   1.083       .  S
C1199      C1200   1.406       .  A
C1200      F1201   1.357       .  S
C1205      C1206   1.403       .  A
C1205      C1210   1.397       .  A
C1205      H1212   1.083       .  S
C1206      C1207   1.406       .  A
C1207      C1208   1.397       .  A
C1207      F1214   1.357       .  S
C1208      C1209   1.403       .  A
C1208      H1213   1.083       .  S
C1209      C1210   1.405       .  A
C1210      F1211   1.357   1_545  S
C1215      C1216   1.406       .  A
C1215      C1220   1.405       .  A
C1215      H1222   1.083       .  S
C1216      C1217   1.405       .  A
C1217      C1218   1.398       .  A
C1217      F1224   1.357       .  S
C1218      C1219   1.405       .  A
C1218      H1223   1.083       .  S
C1219      C1220   1.407       .  A
C1220      F1221   1.357   1_545  S
C1225      C1226   1.408       .  A
C1225      C1230   1.408       .  A
C1225      H1232   1.082       .  S
C1226      C1227   1.412       .  A
C1227      C1228   1.399       .  A
C1227      F1234   1.358       .  S
C1228      C1229   1.402       .  A
C1228      H1233   1.076       .  S
C1229      C1230   1.414       .  A
C1230      F1231   1.353       .  S
C1235      C1236   1.405       .  A
C1235      C1240   1.403       .  A
C1235      H1242   1.082       .  S
C1236      C1237   1.404       .  A
C1237      C1238   1.398       .  A
C1237      F1244   1.357       .  S
C1238      C1239   1.404       .  A
C1238      H1243   1.082       .  S
C1239      C1240   1.405       .  A
C1240      F1241   1.357       .  S
C1245      C1246   1.407       .  A
C1245      C1250   1.400       .  A
C1245      H1252   1.083       .  S
C1246      C1247   1.399       .  A
C1247      C1248   1.394       .  A
C1247      F1254   1.357       .  S
C1248      C1249   1.407       .  A
C1248      H1253   1.084       .  S
C1249      C1250   1.406       .  A
C1250      F1251   1.357       .  S
C1255      C1256   1.404       .  A
C1255      C1260   1.392       .  A
C1255      H1262   1.083       .  S
C1256      C1257   1.409       .  A
C1257      C1258   1.405       .  A
C1257      F1264   1.357       .  S
C1258      C1259   1.405       .  A
C1258      H1263   1.083       .  S
C1259      C1260   1.405       .  A
C1260      F1261   1.356       .  S
C1265      C1266   1.404       .  A
C1265      C1270   1.388       .  A
C1265      H1272   1.083       .  S
C1266      C1267   1.409       .  A
C1267      C1268   1.394       .  A
C1267      F1274   1.357       .  S
C1268      C1269   1.399       .  A
C1268      H1273   1.083       .  S
C1269      C1270   1.402       .  A
C1270      F1271   1.358       .  S
C1275      C1276   1.400       .  A
C1275      C1280   1.393       .  A
C1275      H1282   1.083       .  S
C1276      C1277   1.404       .  A
C1277      C1278   1.397       .  A
C1277      F1284   1.357       .  S
C1278      C1279   1.406       .  A
C1278      H1283   1.083       .  S
C1279      C1280   1.407       .  A
C1280      F1281   1.355       .  S
C1285      C1286   1.404       .  A
C1285      C1290   1.393       .  A
C1285      H1292   1.079       .  S
C1286      C1287   1.407       .  A
C1287      C1288   1.395       .  A
C1287      F1294   1.357       .  S
C1288      C1289   1.404       .  A
C1288      H1293   1.083       .  S
C1289      C1290   1.402       .  A
C1290      F1291   1.358       .  S
C1295      C1296   1.406       .  A
C1295      C1300   1.399       .  A
C1295      H1302   1.084       .  S
C1296      C1297   1.407       .  A
C1297      C1298   1.410       .  A
C1297      F1304   1.357       .  S
C1298      C1299   1.409       .  A
C1298      H1303   1.083       .  S
C1299      C1300   1.406       .  A
C1300      F1301   1.355       .  S
C1305      C1306   1.402       .  A
C1305      C1310   1.397       .  A
C1305      H1312   1.083       .  S
C1306      C1307   1.406       .  A
C1307      C1308   1.402       .  A
C1307      F1314   1.357       .  S
C1308      C1309   1.405       .  A
C1308      H1313   1.083       .  S
C1309      C1310   1.407       .  A
C1310      F1311   1.357       .  S
C1315      C1316   1.419       .  A
C1315      C1320   1.389       .  A
C1315      H1322   1.080       .  S
C1316      C1317   1.418       .  A
C1317      C1318   1.421       .  A
C1317      F1324   1.353       .  S
C1318      C1319   1.413       .  A
C1318      H1323   1.082       .  S
C1319      C1320   1.397       .  A
C1320      F1321   1.360       .  S
C1325      C1326   1.411       .  A
C1325      C1330   1.381       .  A
C1325      H1332   1.079       .  S
C1326      C1327   1.417       .  A
C1327      C1328   1.424       .  A
C1327      F1334   1.356       .  S
C1328      C1329   1.418       .  A
C1328      H1333   1.081       .  S
C1329      C1330   1.405       .  A
C1330      F1331   1.358   1_556  S
C1335      C1336   1.401       .  A
C1335      C1340   1.399       .  A
C1335      H1342   1.083       .  S
C1336      C1337   1.410       .  A
C1337      C1338   1.398       .  A
C1337      F1344   1.357       .  S
C1338      C1339   1.402       .  A
C1338      H1343   1.083       .  S
C1339      C1340   1.408       .  A
C1340      F1341   1.358       .  S
C1345      C1346   1.397       .  A
C1345      C1350   1.393   1_545  A
C1345      H1352   1.068       .  S
C1346      C1347   1.414       .  A
C1347      C1348   1.409       .  A
C1347      F1354   1.353       .  S
C1348      C1349   1.409   1_545  A
C1348      H1353   1.082       .  S
C1349      C1350   1.410       .  A
C1350      F1351   1.354       .  S
C1355      C1356   1.422       .  A
C1355      C1360   1.409       .  A
C1355      H1362   1.078       .  S
C1356      C1357   1.417       .  A
C1357      C1358   1.395       .  A
C1357      F1364   1.354       .  S
C1358      C1359   1.402       .  A
C1358      H1363   1.084       .  S
C1359      C1360   1.399       .  A
C1360      F1361   1.357       .  S
C1365      C1366   1.406       .  A
C1365      C1370   1.394       .  A
C1365      H1372   1.083       .  S
C1366      C1367   1.408       .  A
C1367      C1368   1.399       .  A
C1367      F1374   1.357       .  S
C1368      C1369   1.402       .  A
C1368      H1373   1.083       .  S
C1369      C1370   1.401       .  A
C1370      F1371   1.357       .  S
C1375      C1376   1.405       .  A
C1375      C1380   1.395       .  A
C1375      H1382   1.083       .  S
C1376      C1377   1.403       .  A
C1377      C1378   1.387       .  A
C1377      F1384   1.358       .  S
C1378      C1379   1.402       .  A
C1378      H1383   1.083       .  S
C1379      C1380   1.400       .  A
C1380      F1381   1.357       .  S
C1385      C1386   1.405       .  A
C1385      C1390   1.389       .  A
C1385      H1392   1.083       .  S
C1386      C1387   1.409       .  A
C1387      C1388   1.398       .  A
C1387      F1394   1.357       .  S
C1388      C1389   1.402       .  A
C1388      H1393   1.083       .  S
C1389      C1390   1.401       .  A
C1390      F1391   1.358       .  S
C1395      C1396   1.403       .  A
C1395      C1400   1.388       .  A
C1395      H1402   1.083       .  S
C1396      C1397   1.409       .  A
C1397      C1398   1.395       .  A
C1397      F1404   1.357       .  S
C1398      C1399   1.399       .  A
C1398      H1403   1.083       .  S
C1399      C1400   1.403       .  A
C1400      F1401   1.358       .  S
C1405      C1406   1.406       .  A
C1405      C1410   1.408       .  A
C1405      H1412   1.083   1_545  S
C1406      C1407   1.406       .  A
C1407      C1408   1.396       .  A
C1407      F1414   1.358       .  S
C1408      C1409   1.403       .  A
C1408      H1413   1.080       .  S
C1409      C1410   1.410       .  A
C1410      F1411   1.357       .  S
C1415      C1416   1.404       .  A
C1415      C1420   1.399       .  A
C1415      H1422   1.083       .  S
C1416      C1417   1.404       .  A
C1417      C1418   1.395       .  A
C1417      F1424   1.358       .  S
C1418      C1419   1.404       .  A
C1418      H1423   1.083       .  S
C1419      C1420   1.405       .  A
C1420      F1421   1.357       .  S
C1425      C1426   1.406       .  A
C1425      C1430   1.403       .  A
C1425      H1432   1.083       .  S
C1426      C1427   1.406       .  A
C1427      C1428   1.398       .  A
C1427      F1434   1.356       .  S
C1428      C1429   1.404       .  A
C1428      H1433   1.084       .  S
C1429      C1430   1.406       .  A
C1430      F1431   1.357   1_545  S
C1435      C1436   1.409       .  A
C1435      C1440   1.391       .  A
C1435      H1442   1.083       .  S
C1436      C1437   1.406       .  A
C1437      C1438   1.402       .  A
C1437      F1444   1.357       .  S
C1438      C1439   1.410       .  A
C1438      H1443   1.083       .  S
C1439      C1440   1.399       .  A
C1440      F1441   1.358       .  S
C1445      C1446   1.403       .  A
C1445      C1450   1.396       .  A
C1445      H1452   1.083       .  S
C1446      C1447   1.400       .  A
C1447      C1448   1.394       .  A
C1447      F1454   1.357       .  S
C1448      C1449   1.405       .  A
C1448      H1453   1.082       .  S
C1449      C1450   1.408       .  A
C1450      F1451   1.357       .  S
C1455      C1456   1.403       .  A
C1455      C1460   1.399       .  A
C1455      H1462   1.083       .  S
C1456      C1457   1.405       .  A
C1457      C1458   1.400       .  A
C1457      F1464   1.357       .  S
C1458      C1459   1.407       .  A
C1458      H1463   1.083       .  S
C1459      C1460   1.410       .  A
C1460      F1461   1.357       .  S
C1465      C1466   1.401       .  A
C1465      C1470   1.402       .  A
C1465      H1472   1.083       .  S
C1466      C1467   1.396       .  A
C1467      C1468   1.393       .  A
C1467      F1474   1.358       .  S
C1468      C1469   1.415       .  A
C1468      H1473   1.075       .  S
C1469      C1470   1.415       .  A
C1470      F1471   1.354       .  S
C1475      C1476   1.403       .  A
C1475      C1480   1.399       .  A
C1475      H1482   1.083       .  S
C1476      C1477   1.406       .  A
C1477      C1478   1.404       .  A
C1477      F1484   1.357       .  S
C1478      C1479   1.408       .  A
C1478      H1483   1.083       .  S
C1479      C1480   1.408       .  A
C1480      F1481   1.355       .  S
C1485      C1486   1.405       .  A
C1485      C1490   1.404       .  A
C1485      H1492   1.083       .  S
C1486      C1487   1.405       .  A
C1487      C1488   1.397       .  A
C1487      F1494   1.357       .  S
C1488      C1489   1.404       .  A
C1488      H1493   1.083       .  S
C1489      C1490   1.407       .  A
C1490      F1491   1.357       .  S
C1495      C1496   1.404       .  A
C1495      C1500   1.397       .  A
C1495      H1502   1.083       .  S
C1496      C1497   1.405       .  A
C1497      C1498   1.401       .  A
C1497      F1504   1.357       .  S
C1498      C1499   1.405       .  A
C1498      H1503   1.083       .  S
C1499      C1500   1.405       .  A
C1500      F1501   1.357       .  S
C1505      C1506   1.407       .  A
C1505      C1510   1.391       .  A
C1505      H1512   1.083       .  S
C1506      C1507   1.399       .  A
C1507      C1508   1.393       .  A
C1507      F1514   1.357       .  S
C1508      C1509   1.407       .  A
C1508      H1513   1.083       .  S
C1509      C1510   1.403       .  A
C1510      F1511   1.357       .  S
C1515      C1516   1.400       .  A
C1515      C1520   1.394       .  A
C1515      H1522   1.083       .  S
C1516      C1517   1.406       .  A
C1517      C1518   1.398       .  A
C1517      F1524   1.357       .  S
C1518      C1519   1.401       .  A
C1518      H1523   1.083       .  S
C1519      C1520   1.407       .  A
C1520      F1521   1.357       .  S
C1525      C1526   1.405       .  A
C1525      C1530   1.388       .  A
C1525      H1532   1.083       .  S
C1526      C1527   1.405       .  A
C1527      C1528   1.392       .  A
C1527      F1534   1.357       .  S
C1528      C1529   1.402       .  A
C1528      H1533   1.083       .  S
C1529      C1530   1.397       .  A
C1530      F1531   1.358       .  S
C1535      C1536   1.405       .  A
C1535      C1540   1.391       .  A
C1535      H1542   1.083       .  S
C1536      C1537   1.404       .  A
C1537      C1538   1.384       .  A
C1537      F1544   1.358       .  S
C1538      C1539   1.400       .  A
C1538      H1543   1.083       .  S
C1539      C1540   1.399       .  A
C1540      F1541   1.357       .  S
C1545      C1546   1.403       .  A
C1545      C1550   1.394       .  A
C1545      H1552   1.083       .  S
C1546      C1547   1.410       .  A
C1547      C1548   1.393       .  A
C1547      F1554   1.357       .  S
C1548      C1549   1.397       .  A
C1548      H1553   1.083       .  S
C1549      C1550   1.406       .  A
C1550      F1551   1.357       .  S
C1555      C1556   1.404       .  A
C1555      C1560   1.389       .  A
C1555      H1562   1.083       .  S
C1556      C1557   1.408       .  A
C1557      C1558   1.394       .  A
C1557      F1564   1.357       .  S
C1558      C1559   1.401       .  A
C1558      H1563   1.083       .  S
C1559      C1560   1.401       .  A
C1560      F1561   1.358       .  S
C1565      C1566   1.403       .  A
C1565      C1570   1.396       .  A
C1565      H1572   1.084   1_455  S
C1566      C1567   1.404       .  A
C1567      C1568   1.395       .  A
C1567      F1574   1.358       .  S
C1568      C1569   1.404       .  A
C1568      H1573   1.083       .  S
C1569      C1570   1.404       .  A
C1570      F1571   1.357       .  S
C1575      C1576   1.404       .  A
C1575      C1580   1.398       .  A
C1575      H1582   1.083       .  S
C1576      C1577   1.407       .  A
C1577      C1578   1.403       .  A
C1577      F1584   1.357       .  S
C1578      C1579   1.405       .  A
C1578      H1583   1.083   1_455  S
C1579      C1580   1.405       .  A
C1580      F1581   1.357       .  S
C1585      C1586   1.405       .  A
C1585      C1590   1.405       .  A
C1585      H1592   1.083       .  S
C1586      C1587   1.406       .  A
C1587      C1588   1.394       .  A
C1587      F1594   1.358       .  S
C1588      C1589   1.400       .  A
C1588      H1593   1.081       .  S
C1589      C1590   1.409       .  A
C1590      F1591   1.357       .  S
C1595      C1596   1.410   1_455  A
C1595      C1600   1.418       .  A
C1595      H1602   1.082       .  S
C1596      C1597   1.399       .  A
C1597      C1598   1.384   1_655  A
C1597      F1604   1.359       .  S
C1598      C1599   1.416       .  A
C1598      H1603   1.080       .  S
C1599      C1600   1.422       .  A
C1600      F1601   1.353       .  S
C1605      C1606   1.410       .  A
C1605      C1610   1.404       .  A
C1605      H1612   1.083       .  S
C1606      C1607   1.410       .  A
C1607      C1608   1.399       .  A
C1607      F1614   1.349       .  S
C1608      C1609   1.405       .  A
C1608      H1613   1.084       .  S
C1609      C1610   1.410       .  A
C1610      F1611   1.357       .  S
C1615      C1616   1.397       .  A
C1615      C1620   1.394       .  A
C1615      H1622   1.083       .  S
C1616      C1617   1.406       .  A
C1617      C1618   1.406       .  A
C1617      F1624   1.356       .  S
C1618      C1619   1.414       .  A
C1618      H1623   1.075       .  S
C1619      C1620   1.417       .  A
C1620      F1621   1.358       .  S
C1625      C1626   1.406       .  A
C1625      C1630   1.399       .  A
C1625      H1632   1.083       .  S
C1626      C1627   1.408       .  A
C1627      C1628   1.386       .  A
C1627      F1634   1.357       .  S
C1628      C1629   1.400       .  A
C1628      H1633   1.083       .  S
C1629      C1630   1.404       .  A
C1630      F1631   1.357       .  S
C1635      C1636   1.402       .  A
C1635      C1640   1.384       .  A
C1635      H1642   1.080       .  S
C1636      C1637   1.405       .  A
C1637      C1638   1.391       .  A
C1637      F1644   1.357       .  S
C1638      C1639   1.403       .  A
C1638      H1643   1.083       .  S
C1639      C1640   1.398       .  A
C1640      F1641   1.358       .  S
C1645      C1646   1.407       .  A
C1645      C1650   1.398       .  A
C1645      H1652   1.083       .  S
C1646      C1647   1.407       .  A
C1647      C1648   1.394       .  A
C1647      F1654   1.355       .  S
C1648      C1649   1.401       .  A
C1648      H1653   1.083       .  S
C1649      C1650   1.404       .  A
C1650      F1651   1.357       .  S
C1655      C1656   1.404       .  A
C1655      C1660   1.391       .  A
C1655      H1662   1.083       .  S
C1656      C1657   1.408       .  A
C1657      C1658   1.393       .  A
C1657      F1664   1.357       .  S
C1658      C1659   1.400       .  A
C1658      H1663   1.083       .  S
C1659      C1660   1.402       .  A
C1660      F1661   1.357       .  S
C1665      C1666   1.407       .  A
C1665      C1670   1.397       .  A
C1665      H1672   1.083       .  S
C1666      C1667   1.406       .  A
C1667      C1668   1.400       .  A
C1667      F1674   1.357       .  S
C1668      C1669   1.407       .  A
C1668      H1673   1.083       .  S
C1669      C1670   1.402       .  A
C1670      F1671   1.357       .  S
C1675      C1676   1.406       .  A
C1675      C1680   1.391       .  A
C1675      H1682   1.083       .  S
C1676      C1677   1.407       .  A
C1677      C1678   1.410       .  A
C1677      F1684   1.357       .  S
C1678      C1679   1.413       .  A
C1678      H1683   1.083       .  S
C1679      C1680   1.403       .  A
C1680      F1681   1.352       .  S
C1685      C1686   1.398       .  A
C1685      C1690   1.393       .  A
C1685      H1692   1.083       .  S
C1686      C1687   1.408       .  A
C1687      C1688   1.398       .  A
C1687      F1694   1.357       .  S
C1688      C1689   1.403       .  A
C1688      H1693   1.083       .  S
C1689      C1690   1.407       .  A
C1690      F1691   1.358       .  S
C1695      C1696   1.416       .  A
C1695      C1700   1.426       .  A
C1695      H1702   1.082       .  S
C1696      C1697   1.406       .  A
C1697      C1698   1.380       .  A
C1697      F1704   1.354       .  S
C1698      C1699   1.408       .  A
C1698      H1703   1.080   1_554  S
C1699      C1700   1.423       .  A
C1700      F1701   1.355       .  S
C1705      C1706   1.406       .  A
C1705      C1710   1.397       .  A
C1705      H1712   1.083       .  S
C1706      C1707   1.405       .  A
C1707      C1708   1.398       .  A
C1707      F1714   1.357       .  S
C1708      C1709   1.404       .  A
C1708      H1713   1.083       .  S
C1709      C1710   1.403       .  A
C1710      F1711   1.357       .  S
C1715      C1716   1.406       .  A
C1715      C1720   1.403       .  A
C1715      H1722   1.083       .  S
C1716      C1717   1.406       .  A
C1717      C1718   1.396       .  A
C1717      F1724   1.357       .  S
C1718      C1719   1.403       .  A
C1718      H1723   1.084       .  S
C1719      C1720   1.406       .  A
C1720      F1721   1.357       .  S
C1725      C1726   1.405       .  A
C1725      C1730   1.396       .  A
C1725      H1732   1.083       .  S
C1726      C1727   1.409       .  A
C1727      C1728   1.396       .  A
C1727      F1734   1.353       .  S
C1728      C1729   1.400       .  A
C1728      H1733   1.083       .  S
C1729      C1730   1.405       .  A
C1730      F1731   1.357       .  S
C1735      C1736   1.400       .  A
C1735      C1740   1.390       .  A
C1735      H1742   1.083       .  S
C1736      C1737   1.406       .  A
C1737      C1738   1.399       .  A
C1737      F1744   1.357       .  S
C1738      C1739   1.406       .  A
C1738      H1743   1.083       .  S
C1739      C1740   1.408       .  A
C1740      F1741   1.357       .  S
C1745      C1746   1.400       .  A
C1745      C1750   1.395       .  A
C1745      H1752   1.083       .  S
C1746      C1747   1.403       .  A
C1747      C1748   1.386       .  A
C1747      F1754   1.358       .  S
C1748      C1749   1.403       .  A
C1748      H1753   1.083       .  S
C1749      C1750   1.409       .  A
C1750      F1751   1.357       .  S
C1755      C1756   1.406       .  A
C1755      C1760   1.402       .  A
C1755      H1762   1.083       .  S
C1756      C1757   1.402       .  A
C1757      C1758   1.392       .  A
C1757      F1764   1.354       .  S
C1758      C1759   1.405       .  A
C1758      H1763   1.083       .  S
C1759      C1760   1.408       .  A
C1760      F1761   1.357       .  S
C1765      C1766   1.404       .  A
C1765      C1770   1.402       .  A
C1765      H1772   1.083       .  S
C1766      C1767   1.406       .  A
C1767      C1768   1.397       .  A
C1767      F1774   1.357       .  S
C1768      C1769   1.402       .  A
C1768      H1773   1.083       .  S
C1769      C1770   1.406       .  A
C1770      F1771   1.358       .  S
C1775      C1776   1.405       .  A
C1775      C1780   1.400       .  A
C1775      H1782   1.083       .  S
C1776      C1777   1.404       .  A
C1777      C1778   1.400       .  A
C1777      F1784   1.356       .  S
C1778      C1779   1.404       .  A
C1778      H1783   1.084       .  S
C1779      C1780   1.405       .  A
C1780      F1781   1.357       .  S
C1785      C1786   1.398       .  A
C1785      C1790   1.395       .  A
C1785      H1792   1.083       .  S
C1786      C1787   1.412       .  A
C1787      C1788   1.398       .  A
C1787      F1794   1.357       .  S
C1788      C1789   1.401       .  A
C1788      H1793   1.083       .  S
C1789      C1790   1.411       .  A
C1790      F1791   1.358       .  S
C1795      C1796   1.405       .  A
C1795      C1800   1.403       .  A
C1795      H1802   1.083       .  S
C1796      C1797   1.407       .  A
C1797      C1798   1.399       .  A
C1797      F1804   1.357       .  S
C1798      C1799   1.402       .  A
C1798      H1803   1.083       .  S
C1799      C1800   1.409       .  A
C1800      F1801   1.357       .  S
C1805      C1806   1.401       .  A
C1805      C1810   1.388       .  A
C1805      H1812   1.083       .  S
C1806      C1807   1.400       .  A
C1807      C1808   1.395       .  A
C1807      F1814   1.357       .  S
C1808      C1809   1.406       .  A
C1808      H1813   1.083       .  S
C1809      C1810   1.406       .  A
C1810      F1811   1.357       .  S
C1815      C1816   1.404       .  A
C1815      C1820   1.396       .  A
C1815      H1822   1.083       .  S
C1816      C1817   1.409       .  A
C1817      C1818   1.395       .  A
C1817      F1824   1.356       .  S
C1818      C1819   1.400       .  A
C1818      H1823   1.083       .  S
C1819      C1820   1.406       .  A
C1820      F1821   1.357       .  S
C1825      C1826   1.406       .  A
C1825      C1830   1.391       .  A
C1825      H1832   1.083       .  S
C1826      C1827   1.406       .  A
C1827      C1828   1.391       .  A
C1827      F1834   1.356       .  S
C1828      C1829   1.400       .  A
C1828      H1833   1.083       .  S
C1829      C1830   1.401       .  A
C1830      F1831   1.357       .  S
C1835      C1836   1.407       .  A
C1835      C1840   1.401       .  A
C1835      H1842   1.083       .  S
C1836      C1837   1.409       .  A
C1837      C1838   1.395       .  A
C1837      F1844   1.357       .  S
C1838      C1839   1.401       .  A
C1838      H1843   1.082       .  S
C1839      C1840   1.404       .  A
C1840      F1841   1.357       .  S
C1845      C1846   1.407       .  A
C1845      C1850   1.405       .  A
C1845      H1852   1.083       .  S
C1846      C1847   1.408       .  A
C1847      C1848   1.398       .  A
C1847      F1854   1.357       .  S
C1848      C1849   1.403       .  A
C1848      H1853   1.083       .  S
C1849      C1850   1.407       .  A
C1850      F1851   1.357       .  S
C1855      C1856   1.401       .  A
C1855      C1860   1.399       .  A
C1855      H1862   1.083       .  S
C1856      C1857   1.408       .  A
C1857      C1858   1.401       .  A
C1857      F1864   1.357       .  S
C1858      C1859   1.404       .  A
C1858      H1863   1.083       .  S
C1859      C1860   1.407       .  A
C1860      F1861   1.357       .  S
C1865      C1866   1.401       .  A
C1865      C1870   1.397       .  A
C1865      H1872   1.083       .  S
C1866      C1867   1.410       .  A
C1867      C1868   1.397       .  A
C1867      F1874   1.358       .  S
C1868      C1869   1.399       .  A
C1868      H1873   1.083       .  S
C1869      C1870   1.411       .  A
C1870      F1871   1.357       .  S
C1875      C1876   1.405       .  A
C1875      C1880   1.401       .  A
C1875      H1882   1.083       .  S
C1876      C1877   1.405       .  A
C1877      C1878   1.397       .  A
C1877      F1884   1.357       .  S
C1878      C1879   1.404       .  A
C1878      H1883   1.083       .  S
C1879      C1880   1.406       .  A
C1880      F1881   1.357       .  S
C1885      C1886   1.407   1_545  A
C1885      C1890   1.410       .  A
C1885      H1892   1.082   1_545  S
C1886      C1887   1.395       .  A
C1887      C1888   1.386   1_565  A
C1887      F1894   1.359       .  S
C1888      C1889   1.417       .  A
C1888      H1893   1.080       .  S
C1889      C1890   1.416       .  A
C1890      F1891   1.353       .  S
C1895      C1896   1.411       .  A
C1895      C1900   1.407       .  A
C1895      H1902   1.070       .  S
C1896      C1897   1.416       .  A
C1897      C1898   1.403       .  A
C1897      F1904   1.353       .  S
C1898      C1899   1.402       .  A
C1898      H1903   1.075       .  S
C1899      C1900   1.407       .  A
C1900      F1901   1.357       .  S
C1905      C1906   1.395       .  A
C1905      C1910   1.401       .  A
C1905      H1912   1.082       .  S
C1906      C1907   1.401       .  A
C1907      C1908   1.394       .  A
C1907      F1914   1.359       .  S
C1908      C1909   1.416       .  A
C1908      H1913   1.077       .  S
C1909      C1910   1.420       .  A
C1910      F1911   1.340       .  S
C1915      C1916   1.401   1_545  A
C1915      C1920   1.397       .  A
C1915      H1922   1.073       .  S
C1916      C1917   1.418       .  A
C1917      C1918   1.414   1_565  A
C1917      F1924   1.355       .  S
C1918      C1919   1.407       .  A
C1918      H1923   1.082       .  S
C1919      C1920   1.413       .  A
C1920      F1921   1.356       .  S
C1925      C1926   1.396       .  A
C1925      C1930   1.388       .  A
C1925      H1932   1.085       .  S
C1926      C1927   1.408       .  A
C1927      C1928   1.412       .  A
C1927      F1934   1.356       .  S
C1928      C1929   1.413       .  A
C1928      H1933   1.078       .  S
C1929      C1930   1.422       .  A
C1930      F1931   1.357       .  S
C1935      C1936   1.407   1_455  A
C1935      C1940   1.400       .  A
C1935      H1942   1.081       .  S
C1936      C1937   1.417   1_655  A
C1937      C1938   1.406       .  A
C1937      F1944   1.353   1_455  S
C1938      C1939   1.402       .  A
C1938      H1943   1.083       .  S
C1939      C1940   1.411       .  A
C1940      F1941   1.356       .  S
C1945      C1946   1.410   1_455  A
C1945      C1950   1.420       .  A
C1945      H1952   1.082       .  S
C1946      C1947   1.396       .  A
C1947      C1948   1.383   1_655  A
C1947      F1954   1.359       .  S
C1948      C1949   1.421       .  A
C1948      H1953   1.079       .  S
C1949      C1950   1.422       .  A
C1950      F1951   1.352       .  S
C1955      C1956   1.419       .  A
C1955      C1960   1.411       .  A
C1955      H1962   1.067       .  S
C1956      C1957   1.417       .  A
C1957      C1958   1.398       .  A
C1957      F1964   1.358       .  S
C1958      C1959   1.403       .  A
C1958      H1963   1.083       .  S
C1959      C1960   1.405       .  A
C1960      F1961   1.357       .  S
C1965      C1966   1.407       .  A
C1965      C1970   1.394       .  A
C1965      H1972   1.084       .  S
C1966      C1967   1.413       .  A
C1967      C1968   1.405       .  A
C1967      F1974   1.357       .  S
C1968      C1969   1.407       .  A
C1968      H1973   1.082       .  S
C1969      C1970   1.403       .  A
C1970      F1971   1.354       .  S
C1975      C1976   1.415   1_545  A
C1975      C1980   1.424       .  A
C1975      H1982   1.082       .  S
C1976      C1977   1.405       .  A
C1977      C1978   1.384   1_565  A
C1977      F1984   1.358       .  S
C1978      C1979   1.413       .  A
C1978      H1983   1.080   1_545  S
C1979      C1980   1.422       .  A
C1980      F1981   1.353       .  S
C1985      C1986   1.408   1_545  A
C1985      C1990   1.402       .  A
C1985      H1992   1.080       .  S
C1986      C1987   1.413       .  A
C1987      C1988   1.397   1_565  A
C1987      F1994   1.358       .  S
C1988      C1989   1.402       .  A
C1988      H1993   1.084       .  S
C1989      C1990   1.409       .  A
C1990      F1991   1.355       .  S
C1995      C1996   1.408       .  A
C1995      C2000   1.389       .  A
C1995      H2002   1.082       .  S
C1996      C1997   1.417       .  A
C1997      C1998   1.416       .  A
C1997      F2004   1.348       .  S
C1998      C1999   1.413       .  A
C1998      H2003   1.081       .  S
C1999      C2000   1.414       .  A
C2000      F2001   1.358       .  S
C2005      C2006   1.405   1_455  A
C2005      C2010   1.402       .  A
C2005      H2012   1.082       .  S
C2006      C2007   1.417   1_655  A
C2007      C2008   1.408       .  A
C2007      F2014   1.355   1_455  S
C2008      C2009   1.404       .  A
C2008      H2013   1.083       .  S
C2009      C2010   1.414       .  A
C2010      F2011   1.357       .  S
C2015      C2016   1.410       .  A
C2015      C2020   1.417       .  A
C2015      H2022   1.082       .  S
C2016      C2017   1.398       .  A
C2017      C2018   1.386       .  A
C2017      F2024   1.360       .  S
C2018      C2019   1.415       .  A
C2018      H2023   1.080       .  S
C2019      C2020   1.417       .  A
C2020      F2021   1.353       .  S
C2025      C2026   1.420       .  A
C2025      C2030   1.412       .  A
C2025      H2032   1.083       .  S
C2026      C2027   1.417       .  A
C2027      C2028   1.399       .  A
C2027      F2034   1.342       .  S
C2028      C2029   1.400       .  A
C2028      H2033   1.081       .  S
C2029      C2030   1.405       .  A
C2030      F2031   1.357       .  S
C2035      C2036   1.415       .  A
C2035      C2040   1.386   1_455  A
C2035      H2042   1.080       .  S
C2036      C2037   1.423       .  A
C2037      C2038   1.417       .  A
C2037      F2044   1.352       .  S
C2038      C2039   1.408   1_455  A
C2038      H2043   1.082       .  S
C2039      C2040   1.401       .  A
C2040      F2041   1.358       .  S
C2045      C2046   1.403       .  A
C2045      C2050   1.379       .  A
C2045      H2052   1.083   1_554  S
C2046      C2047   1.421       .  A
C2047      C2048   1.421       .  A
C2047      F2054   1.355       .  S
C2048      C2049   1.413       .  A
C2048      H2053   1.082       .  S
C2049      C2050   1.411       .  A
C2050      F2051   1.356       .  S
C2055      C2056   1.408       .  A
C2055      C2060   1.400       .  A
C2055      H2062   1.084       .  S
C2056      C2057   1.415       .  A
C2057      C2058   1.408       .  A
C2057      F2064   1.355       .  S
C2058      C2059   1.409       .  A
C2058      H2063   1.081       .  S
C2059      C2060   1.409       .  A
C2060      F2061   1.352       .  S
C2065      C2066   1.407       .  A
C2065      C2070   1.407       .  A
C2065      H2072   1.082       .  S
C2066      C2067   1.409       .  A
C2067      C2068   1.396       .  A
C2067      F2074   1.358       .  S
C2068      C2069   1.402       .  A
C2068      H2073   1.072       .  S
C2069      C2070   1.414       .  A
C2070      F2071   1.355       .  S
C2075      C2076   1.418       .  A
C2075      C2080   1.383       .  A
C2075      H2082   1.079       .  S
C2076      C2077   1.427       .  A
C2077      C2078   1.414       .  A
C2077      F2084   1.349       .  S
C2078      C2079   1.404       .  A
C2078      H2083   1.083       .  S
C2079      C2080   1.397       .  A
C2080      F2081   1.358       .  S
C2085      C2086   1.418       .  A
C2085      C2090   1.386       .  A
C2085      H2092   1.079       .  S
C2086      C2087   1.426       .  A
C2087      C2088   1.420       .  A
C2087      F2094   1.351       .  S
C2088      C2089   1.408       .  A
C2088      H2093   1.083       .  S
C2089      C2090   1.401       .  A
C2090      F2091   1.357       .  S
C2095      C2096   1.413       .  A
C2095      C2100   1.407       .  A
C2095      H2102   1.083       .  S
C2096      C2097   1.409       .  A
C2097      C2098   1.402       .  A
C2097      F2104   1.358       .  S
C2098      C2099   1.410       .  A
C2098      H2103   1.083       .  S
C2099      C2100   1.406       .  A
C2100      F2101   1.357       .  S
C2105      C2106   1.403       .  A
C2105      C2110   1.394       .  A
C2105      H2112   1.081       .  S
C2106      C2107   1.417       .  A
C2107      C2108   1.412       .  A
C2107      F2114   1.357       .  S
C2108      C2109   1.408       .  A
C2108      H2113   1.082       .  S
C2109      C2110   1.412       .  A
C2110      F2111   1.356       .  S
C2115      C2116   1.406       .  A
C2115      C2120   1.409       .  A
C2115      H2122   1.079       .  S
C2116      C2117   1.400       .  A
C2117      C2118   1.399       .  A
C2117      F2124   1.359       .  S
C2118      C2119   1.425       .  A
C2118      H2123   1.076       .  S
C2119      C2120   1.419       .  A
C2120      F2121   1.354       .  S
C2125      C2126   1.398       .  A
C2125      C2130   1.389       .  A
C2125      H2132   1.084       .  S
C2126      C2127   1.411       .  A
C2127      C2128   1.411       .  A
C2127      F2134   1.355       .  S
C2128      C2129   1.410       .  A
C2128      H2133   1.080       .  S
C2129      C2130   1.419       .  A
C2130      F2131   1.358       .  S
C2135      C2136   1.406       .  A
C2135      C2140   1.392       .  A
C2135      H2142   1.081       .  S
C2136      C2137   1.410       .  A
C2137      C2138   1.398       .  A
C2137      F2144   1.352       .  S
C2138      C2139   1.403       .  A
C2138      H2143   1.083       .  S
C2139      C2140   1.407       .  A
C2140      F2141   1.357       .  S
C2145      C2146   1.410       .  A
C2145      C2150   1.418       .  A
C2145      H2152   1.082       .  S
C2146      C2147   1.399       .  A
C2147      C2148   1.384       .  A
C2147      F2154   1.359       .  S
C2148      C2149   1.419       .  A
C2148      H2153   1.079       .  S
C2149      C2150   1.421       .  A
C2150      F2151   1.353       .  S
C2155      C2156   1.398       .  A
C2155      C2160   1.392       .  A
C2155      H2162   1.083       .  S
C2156      C2157   1.396       .  A
C2157      C2158   1.403       .  A
C2157      F2164   1.358       .  S
C2158      C2159   1.420       .  A
C2158      H2163   1.065       .  S
C2159      C2160   1.417       .  A
C2160      F2161   1.358       .  S
C2165      C2166   1.414       .  A
C2165      C2170   1.383       .  A
C2165      H2172   1.082       .  S
C2166      C2167   1.422       .  A
C2167      C2168   1.407       .  A
C2167      F2174   1.352       .  S
C2168      C2169   1.401       .  A
C2168      H2173   1.083       .  S
C2169      C2170   1.399       .  A
C2170      F2171   1.356       .  S
C2175      C2176   1.404       .  A
C2175      C2180   1.411       .  A
C2175      H2182   1.082       .  S
C2176      C2177   1.395       .  A
C2177      C2178   1.382       .  A
C2177      F2184   1.359       .  S
C2178      C2179   1.419       .  A
C2178      H2183   1.080       .  S
C2179      C2180   1.420       .  A
C2180      F2181   1.352       .  S
C2185      C2186   1.413       .  A
C2185      C2190   1.397       .  A
C2185      H2192   1.080       .  S
C2186      C2187   1.413       .  A
C2187      C2188   1.389       .  A
C2187      F2194   1.337       .  S
C2188      C2189   1.391       .  A
C2188      H2193   1.082       .  S
C2189      C2190   1.403       .  A
C2190      F2191   1.356       .  S
C2195      C2196   1.409       .  A
C2195      C2200   1.398       .  A
C2195      H2202   1.079       .  S
C2196      C2197   1.405       .  A
C2197      C2198   1.396       .  A
C2197      F2204   1.357       .  S
C2198      C2199   1.408       .  A
C2198      H2203   1.083       .  S
C2199      C2200   1.404       .  A
C2200      F2201   1.357       .  S
C2205      C2206   1.412       .  A
C2205      C2210   1.393       .  A
C2205      H2212   1.071       .  S
C2206      C2207   1.417       .  A
C2207      C2208   1.399       .  A
C2207      F2214   1.356       .  S
C2208      C2209   1.399       .  A
C2208      H2213   1.083       .  S
C2209      C2210   1.397       .  A
C2210      F2211   1.357       .  S
C2215      C2216   1.421       .  A
C2215      C2220   1.402       .  A
C2215      H2222   1.067       .  S
C2216      C2217   1.421       .  A
C2217      C2218   1.384       .  A
C2217      F2224   1.357       .  S
C2218      C2219   1.391       .  A
C2218      H2223   1.084       .  S
C2219      C2220   1.397       .  A
C2220      F2221   1.357       .  S
C2225      C2226   1.402       .  A
C2225      C2230   1.401       .  A
C2225      H2232   1.083       .  S
C2226      C2227   1.411       .  A
C2227      C2228   1.395       .  A
C2227      F2234   1.351       .  S
C2228      C2229   1.405       .  A
C2228      H2233   1.084       .  S
C2229      C2230   1.412       .  A
C2230      F2231   1.347       .  S
C2235      C2236   1.390       .  A
C2235      C2240   1.379       .  A
C2235      H2242   1.083       .  S
C2236      C2237   1.403       .  A
C2237      C2238   1.410       .  A
C2237      F2244   1.357       .  S
C2238      C2239   1.417       .  A
C2238      H2243   1.073       .  S
C2239      C2240   1.426       .  A
C2240      F2241   1.356       .  S
C2245      C2246   1.398       .  A
C2245      C2250   1.394       .  A
C2245      H2252   1.080       .  S
C2246      C2247   1.399       .  A
C2247      C2248   1.405       .  A
C2247      F2254   1.357       .  S
C2248      C2249   1.419       .  A
C2248      H2253   1.069       .  S
C2249      C2250   1.420       .  A
C2250      F2251   1.358       .  S
C2255      C2256   1.418       .  A
C2255      C2260   1.378       .  A
C2255      H2262   1.080       .  S
C2256      C2257   1.420       .  A
C2257      C2258   1.413       .  A
C2257      F2264   1.352       .  S
C2258      C2259   1.406       .  A
C2258      H2263   1.082       .  S
C2259      C2260   1.395       .  A
C2260      F2261   1.359       .  S
C2265      C2266   1.406       .  A
C2265      C2270   1.402       .  A
C2265      H2272   1.081       .  S
C2266      C2267   1.409       .  A
C2267      C2268   1.390       .  A
C2267      F2274   1.358       .  S
C2268      C2269   1.404       .  A
C2268      H2273   1.080       .  S
C2269      C2270   1.409       .  A
C2270      F2271   1.353       .  S
C2275      C2276   1.407       .  A
C2275      C2280   1.402       .  A
C2275      H2282   1.082       .  S
C2276      C2277   1.412       .  A
C2277      C2278   1.389       .  A
C2277      F2284   1.357       .  S
C2278      C2279   1.401       .  A
C2278      H2283   1.084       .  S
C2279      C2280   1.407       .  A
C2280      F2281   1.354       .  S
C2285      C2286   1.407       .  A
C2285      C2290   1.390       .  A
C2285      H2292   1.084       .  S
C2286      C2287   1.415       .  A
C2287      C2288   1.401       .  A
C2287      F2294   1.356       .  S
C2288      C2289   1.404       .  A
C2288      H2293   1.082       .  S
C2289      C2290   1.400       .  A
C2290      F2291   1.357       .  S
C2295      C2296   1.413       .  A
C2295      C2300   1.413       .  A
C2295      H2302   1.082       .  S
C2296      C2297   1.404       .  A
C2297      C2298   1.378       .  A
C2297      F2304   1.358       .  S
C2298      C2299   1.410       .  A
C2298      H2303   1.080       .  S
C2299      C2300   1.415       .  A
C2300      F2301   1.355       .  S
C2305      C2306   1.406       .  A
C2305      C2310   1.390       .  A
C2305      H2312   1.081       .  S
C2306      C2307   1.411       .  A
C2307      C2308   1.400       .  A
C2307      F2314   1.357       .  S
C2308      C2309   1.403       .  A
C2308      H2313   1.083       .  S
C2309      C2310   1.405       .  A
C2310      F2311   1.357       .  S
C2315      C2316   1.401       .  A
C2315      C2320   1.377       .  A
C2315      H2322   1.082       .  S
C2316      C2317   1.414       .  A
C2317      C2318   1.416       .  A
C2317      F2324   1.356       .  S
C2318      C2319   1.416       .  A
C2318      H2323   1.081       .  S
C2319      C2320   1.416       .  A
C2320      F2321   1.355       .  S
C2325      C2326   1.410       .  A
C2325      C2330   1.410       .  A
C2325      H2332   1.083       .  S
C2326      C2327   1.410       .  A
C2327      C2328   1.386       .  A
C2327      F2334   1.350       .  S
C2328      C2329   1.398       .  A
C2328      H2333   1.083       .  S
C2329      C2330   1.410       .  A
C2330      F2331   1.357       .  S
C2335      C2336   1.394       .  A
C2335      C2340   1.384       .  A
C2335      H2342   1.079       .  S
C2336      C2337   1.401       .  A
C2337      C2338   1.409       .  A
C2337      F2344   1.357       .  S
C2338      C2339   1.419       .  A
C2338      H2343   1.069       .  S
C2339      C2340   1.421       .  A
C2340      F2341   1.357       .  S
C2345      C2346   1.405       .  A
C2345      C2350   1.391       .  A
C2345      H2352   1.077       .  S
C2346      C2347   1.412       .  A
C2347      C2348   1.401       .  A
C2347      F2354   1.351       .  S
C2348      C2349   1.404       .  A
C2348      H2353   1.083       .  S
C2349      C2350   1.405       .  A
C2350      F2351   1.356       .  S
C2355      C2356   1.390       .  A
C2355      C2360   1.381       .  A
C2355      H2362   1.077       .  S
C2356      C2357   1.410       .  A
C2357      C2358   1.412       .  A
C2357      F2364   1.355       .  S
C2358      C2359   1.413       .  A
C2358      H2363   1.080       .  S
C2359      C2360   1.412       .  A
C2360      F2361   1.357       .  S
C2365      C2366   1.411       .  A
C2365      C2370   1.417       .  A
C2365      H2372   1.082       .  S
C2366      C2367   1.400       .  A
C2367      C2368   1.385       .  A
C2367      F2374   1.359       .  S
C2368      C2369   1.416       .  A
C2368      H2373   1.080       .  S
C2369      C2370   1.419       .  A
C2370      F2371   1.354       .  S
C2375      C2376   1.416       .  A
C2375      C2380   1.395   1_545  A
C2375      H2382   1.081       .  S
C2376      C2377   1.420       .  A
C2377      C2378   1.405   1_545  A
C2377      F2384   1.341       .  S
C2378      C2379   1.398       .  A
C2378      H2383   1.083       .  S
C2379      C2380   1.402       .  A
C2380      F2381   1.358       .  S
C2385      C2386   1.418       .  A
C2385      C2390   1.398   1_565  A
C2385      H2392   1.083       .  S
C2386      C2387   1.426   1_565  A
C2387      C2388   1.407       .  A
C2387      F2394   1.343       .  S
C2388      C2389   1.399       .  A
C2388      H2393   1.083       .  S
C2389      C2390   1.401       .  A
C2390      F2391   1.358   1_545  S
C2395      C2396   1.410       .  A
C2395      C2400   1.400       .  A
C2395      H2402   1.083       .  S
C2396      C2397   1.405       .  A
C2397      C2398   1.404       .  A
C2397      F2404   1.357       .  S
C2398      C2399   1.413       .  A
C2398      H2403   1.081       .  S
C2399      C2400   1.407       .  A
C2400      F2401   1.357       .  S
C2405      C2406   1.419       .  A
C2405      C2410   1.389   1_455  A
C2405      H2412   1.081       .  S
C2406      C2407   1.419       .  A
C2407      C2408   1.417       .  A
C2407      F2414   1.352       .  S
C2408      C2409   1.410   1_455  A
C2408      H2413   1.082       .  S
C2409      C2410   1.398       .  A
C2410      F2411   1.359       .  S
C2415      C2416   1.418       .  A
C2415      C2420   1.422       .  A
C2415      H2422   1.079       .  S
C2416      C2417   1.423       .  A
C2417      C2418   1.384       .  A
C2417      F2424   1.356       .  S
C2418      C2419   1.396       .  A
C2418      H2423   1.084       .  S
C2419      C2420   1.413       .  A
C2420      F2421   1.356       .  S
C2425      C2426   1.418       .  A
C2425      C2430   1.400   1_655  A
C2425      H2432   1.083       .  S
C2426      C2427   1.424   1_655  A
C2427      C2428   1.408       .  A
C2427      F2434   1.343       .  S
C2428      C2429   1.401       .  A
C2428      H2433   1.082       .  S
C2429      C2430   1.402       .  A
C2430      F2431   1.358   1_455  S
C2435      C2436   1.411       .  A
C2435      C2440   1.408       .  A
C2435      H2442   1.080       .  S
C2436      C2437   1.414       .  A
C2437      C2438   1.398       .  A
C2437      F2444   1.354       .  S
C2438      C2439   1.400       .  A
C2438      H2443   1.076       .  S
C2439      C2440   1.412       .  A
C2440      F2441   1.355       .  S
C2445      C2446   1.406       .  A
C2445      C2450   1.393       .  A
C2445      H2452   1.072       .  S
C2446      C2447   1.417       .  A
C2447      C2448   1.409       .  A
C2447      F2454   1.357       .  S
C2448      C2449   1.405       .  A
C2448      H2453   1.083       .  S
C2449      C2450   1.405       .  A
C2450      F2451   1.356       .  S
C2455      C2456   1.401       .  A
C2455      C2460   1.400       .  A
C2455      H2462   1.082       .  S
C2456      C2457   1.402       .  A
C2457      C2458   1.405       .  A
C2457      F2464   1.357       .  S
C2458      C2459   1.418       .  A
C2458      H2463   1.079       .  S
C2459      C2460   1.413       .  A
C2460      F2461   1.346       .  S
C2465      C2466   1.403       .  A
C2465      C2470   1.379       .  A
C2465      H2472   1.080       .  S
C2466      C2467   1.414       .  A
C2467      C2468   1.422       .  A
C2467      F2474   1.356       .  S
C2468      C2469   1.419       .  A
C2468      H2473   1.080       .  S
C2469      C2470   1.411       .  A
C2470      F2471   1.357   1_554  S
C2475      C2476   1.396       .  A
C2475      C2480   1.393       .  A
C2475      H2482   1.083       .  S
C2476      C2477   1.400       .  A
C2477      C2478   1.408       .  A
C2477      F2484   1.357       .  S
C2478      C2479   1.417       .  A
C2478      H2483   1.058       .  S
C2479      C2480   1.422       .  A
C2480      F2481   1.355       .  S
C2485      C2486   1.404       .  A
C2485      C2490   1.398       .  A
C2485      H2492   1.083       .  S
C2486      C2487   1.404       .  A
C2487      C2488   1.395       .  A
C2487      F2494   1.358       .  S
C2488      C2489   1.408       .  A
C2488      H2493   1.083       .  S
C2489      C2490   1.412       .  A
C2490      F2491   1.358       .  S
C2495      C2496   1.406       .  A
C2495      C2500   1.396       .  A
C2495      H2502   1.083       .  S
C2496      C2497   1.404       .  A
C2497      C2498   1.393       .  A
C2497      F2504   1.357       .  S
C2498      C2499   1.408       .  A
C2498      H2503   1.082       .  S
C2499      C2500   1.409       .  A
C2500      F2501   1.358       .  S
C2505      C2506   1.416       .  A
C2505      C2510   1.418       .  A
C2505      H2512   1.082       .  S
C2506      C2507   1.403       .  A
C2507      C2508   1.374       .  A
C2507      F2514   1.357       .  S
C2508      C2509   1.411       .  A
C2508      H2513   1.078       .  S
C2509      C2510   1.416       .  A
C2510      F2511   1.355       .  S
C2515      C2516   1.419       .  A
C2515      C2520   1.411       .  A
C2515      H2522   1.079       .  S
C2516      C2517   1.423       .  A
C2517      C2518   1.384       .  A
C2517      F2524   1.356       .  S
C2518      C2519   1.393       .  A
C2518      H2523   1.084       .  S
C2519      C2520   1.405       .  A
C2520      F2521   1.356       .  S
C2525      C2526   1.407       .  A
C2525      C2530   1.406       .  A
C2525      H2532   1.078       .  S
C2526      C2527   1.397       .  A
C2527      C2528   1.379       .  A
C2527      F2534   1.356       .  S
C2528      C2529   1.416       .  A
C2528      H2533   1.080       .  S
C2529      C2530   1.416       .  A
C2530      F2531   1.353       .  S
C2535      C2536   1.392       .  A
C2535      C2540   1.379       .  A
C2535      H2542   1.080       .  S
C2536      C2537   1.408       .  A
C2537      C2538   1.411       .  A
C2537      F2544   1.356       .  S
C2538      C2539   1.412       .  A
C2538      H2543   1.083       .  S
C2539      C2540   1.406       .  A
C2540      F2541   1.356       .  S
C2545      C2546   1.408       .  A
C2545      C2550   1.390       .  A
C2545      H2552   1.066       .  S
C2546      C2547   1.404       .  A
C2547      C2548   1.401       .  A
C2547      F2554   1.358       .  S
C2548      C2549   1.408       .  A
C2548      H2553   1.068       .  S
C2549      C2550   1.401       .  A
C2550      F2551   1.357       .  S
C2555      C2556   1.413       .  A
C2555      C2560   1.401       .  A
C2555      H2562   1.067       .  S
C2556      C2557   1.425       .  A
C2557      C2558   1.391       .  A
C2557      F2564   1.355       .  S
C2558      C2559   1.393       .  A
C2558      H2563   1.083       .  S
C2559      C2560   1.399       .  A
C2560      F2561   1.357       .  S
C2565      C2566   1.417       .  A
C2565      C2570   1.412       .  A
C2565      H2572   1.076       .  S
C2566      C2567   1.426       .  A
C2567      C2568   1.383       .  A
C2567      F2574   1.356       .  S
C2568      C2569   1.393       .  A
C2568      H2573   1.083       .  S
C2569      C2570   1.405       .  A
C2570      F2571   1.357       .  S
C2575      C2576   1.393       .  A
C2575      C2580   1.380       .  A
C2575      H2582   1.084       .  S
C2576      C2577   1.409       .  A
C2577      C2578   1.413       .  A
C2577      F2584   1.355       .  S
C2578      C2579   1.413       .  A
C2578      H2583   1.080       .  S
C2579      C2580   1.415       .  A
C2580      F2581   1.358       .  S
C2585      C2586   1.407       .  A
C2585      C2590   1.390       .  A
C2585      H2592   1.077       .  S
C2586      C2587   1.406       .  A
C2587      C2588   1.392       .  A
C2587      F2594   1.358       .  S
C2588      C2589   1.406       .  A
C2588      H2593   1.081       .  S
C2589      C2590   1.400       .  A
C2590      F2591   1.355       .  S
C2595      C2596   1.404       .  A
C2595      C2600   1.381       .  A
C2595      H2602   1.063       .  S
C2596      C2597   1.411       .  A
C2597      C2598   1.406       .  A
C2597      F2604   1.357       .  S
C2598      C2599   1.405       .  A
C2598      H2603   1.083       .  S
C2599      C2600   1.395       .  A
C2600      F2601   1.358       .  S
