geometry optimzed in LAMMPS
_audit_creation_date              2020-11-30 
_audit_creation_method            'lammps2cif' 
_symmetry_space_group_name_H-M    'P1' 
_symmetry_Int_Tables_number       1 
_symmetry_cell_setting            triclinic 
loop_ 
_symmetry_equiv_pos_as_xyz 
  x,y,z 
_cell_length_a                    32.55561539 
_cell_length_b                    32.55430446203972 
_cell_length_c                    32.55475459137482 
_cell_angle_alpha                 88.13743862033392 
_cell_angle_beta                  88.13493676752951 
_cell_angle_gamma                 88.13660104827447 
loop_ 
_atom_site_label 
_atom_site_type_symbol 
_atom_site_fract_x 
_atom_site_fract_y 
_atom_site_fract_z 
_atom_site_charge 
C1          C  0.63456937  0.68576382  0.90846125     0.81900
N2          N  0.65991712  0.71207194  0.88653412    -0.76400
C3          C  0.69875175  0.69880291  0.87333544     0.84400
N4          N  0.71202573  0.65997541  0.88655739    -0.76300
C5          C  0.68571598  0.63463112  0.90848645     0.84500
N6          N  0.64746540  0.64751908  0.91703714    -0.78000
C7          C  0.81016595  0.69881062  0.76193310     0.81900
N8          N  0.82338025  0.65997996  0.77520567    -0.76400
C9          C  0.84531257  0.63463666  0.74889609     0.84400
N10         N  0.85387378  0.64752852  0.71064877    -0.76300
C11         C  0.84530812  0.68577677  0.69775670     0.84500
N12         N  0.82337583  0.71208315  0.72310396    -0.78000
C13         C  0.69875551  0.81020727  0.76193410     0.81900
N14         N  0.71203397  0.82343509  0.72311264    -0.76400
C15         C  0.68572638  0.84536246  0.69776493     0.84400
N16         N  0.64747114  0.85390234  0.71064784    -0.76300
C17         C  0.63457071  0.84532256  0.74888910     0.84500
N18         N  0.65991630  0.82339707  0.77519969    -0.78000
C19         C  0.71161136  0.76603487  0.82916540     0.04000
C20         C  0.72612967  0.72617732  0.84433963     0.04000
C21         C  0.76598705  0.71166195  0.82916465     0.04000
C22         C  0.78116598  0.72618330  0.78931137     0.04000
C23         C  0.76599000  0.76604128  0.77479374     0.04000
C24         C  0.72613241  0.78121344  0.78931229     0.04000
C25         C  0.32429630  0.37544054  0.89295561     0.81900
N26         N  0.29573765  0.34776780  0.88241510    -0.76400
C27         C  0.30759314  0.30763769  0.87463501     0.84400
N28         N  0.34772448  0.29577559  0.88239186    -0.76300
C29         C  0.37540342  0.32432772  0.89293263     0.84500
N30         N  0.36350296  0.36353530  0.89535684    -0.78000
C31         C  0.82982444  0.32426902  0.43849076     0.81900
N32         N  0.83220371  0.36348104  0.42659522    -0.76400
C33         C  0.82981099  0.37538187  0.38738548     0.84400
N34         N  0.81929682  0.34769952  0.35882413    -0.76300
C35         C  0.81154049  0.30756556  0.37067856     0.84500
N36         N  0.81930925  0.29570756  0.41080942    -0.78000
C37         C  0.32423410  0.82984911  0.43852165     0.81900
N38         N  0.36343890  0.83226376  0.42661651    -0.76400
C39         C  0.37533753  0.82986928  0.38740453     0.84400
N40         N  0.34765784  0.81933993  0.35884955    -0.76300
C41         C  0.30753126  0.81156741  0.37070817     0.84500
N42         N  0.29567454  0.81932246  0.41084585    -0.78000
C43         C  0.81923247  0.81926749  0.38379890     0.81900
N44         N  0.80654449  0.85854266  0.39394128    -0.76400
C45         C  0.83197120  0.88351536  0.41396150     0.84400
N46         N  0.86966475  0.86970949  0.42356286    -0.76300
C47         C  0.88347388  0.83201497  0.41396505     0.84500
N48         N  0.85850707  0.80658206  0.39394458    -0.78000
C49         C  0.86661125  0.81551446  0.74738845     0.81900
N50         N  0.83805121  0.78622732  0.75481965    -0.76400
C51         C  0.79728541  0.79733950  0.76008213     0.84400
N52         N  0.78616833  0.83810614  0.75481634    -0.76300
C53         C  0.81545119  0.86666997  0.74738412     0.84500
N54         N  0.85494379  0.85500764  0.74496860    -0.78000
C55         C  0.81928149  0.32068841  0.88238062     0.81900
N56         N  0.85855297  0.33083283  0.86969669    -0.76400
C57         C  0.88352041  0.35086123  0.89512426     0.84400
N58         N  0.86970606  0.36046650  0.93281733    -0.76300
C59         C  0.83201447  0.35086473  0.94662294     0.84500
N60         N  0.80658788  0.33083657  0.92165541    -0.78000
C61         C  0.86660455  0.68425271  0.87863897     0.81900
N62         N  0.83804581  0.69168339  0.84935105    -0.76400
C63         C  0.79728025  0.69695101  0.86046507     0.84400
N64         N  0.78616254  0.69169574  0.90123024    -0.76300
C65         C  0.81544434  0.68426533  0.92979531     0.84500
N66         N  0.85493692  0.68183915  0.91813101    -0.78000
C67         C  0.14197231  0.82753566  0.40784799     0.81900
N68         N  0.16897024  0.79897289  0.39106315    -0.76400
C69         C  0.20846339  0.80952590  0.37969631     0.84400
N70         N  0.22030115  0.84861472  0.38873176    -0.76300
C71         C  0.19245561  0.87623528  0.40588943     0.84500
N72         N  0.15405281  0.86540979  0.41379565    -0.78000
C73         C  0.19960474  0.88525795  0.74557263     0.81900
N74         N  0.22815187  0.85826594  0.76238398    -0.76400
C75         C  0.21758983  0.81877452  0.77376602     0.84400
N76         N  0.17850312  0.80694097  0.76471708    -0.76300
C77         C  0.15089855  0.83478043  0.74753103     0.84500
N78         N  0.16173379  0.87318054  0.73960952    -0.78000
O79         O  0.95926581  0.82323362  0.63249648    -0.78400
O80         O  0.06054922  0.82513926  0.53329275    -0.78400
O81         O  0.05742004  0.77361870  0.67290630    -0.78400
O82         O  0.98999563  0.76838633  0.49380244    -0.78400
O83         O  0.06389032  0.82763193  0.62903297    -0.78500
O84         O  0.96647356  0.82176943  0.53000928    -0.78400
O85         O  0.04855998  0.77054075  0.49604453    -0.78400
O86         O  0.97854812  0.76880462  0.67169851    -0.78500
C87         C  0.95922932  0.80278328  0.66681034     1.11300
C88         C  0.06135349  0.80657260  0.49876505     1.11200
C89         C  0.06700634  0.81037877  0.66529162     1.11300
C90         C  0.96997616  0.80264191  0.49596458     1.11200
O91         O  0.92954482  0.75979097  0.55353978    -0.78400
O92         O  0.11182964  0.75769062  0.62088783    -0.78500
O93         O  0.97911675  0.69756676  0.62827639    -0.78400
O94         O  0.06980028  0.69929688  0.53062820    -0.78400
O95         O  0.10856333  0.75310623  0.54220820    -0.78500
O96         O  0.93583992  0.74995798  0.61151730    -0.78400
O97         O  0.96767468  0.70573125  0.53245258    -0.78400
O98         O  0.07498594  0.70164724  0.63174308    -0.78500
Co99       Co  0.97201103  0.78959479  0.58378270     1.51500
Co100      Co  0.08115681  0.79128929  0.58174104     1.51700
Co101      Co  0.02312489  0.73507018  0.64620067     1.51600
Co102      Co  0.02044340  0.73585865  0.53752307     1.51500
O103        O  0.02625919  0.76311822  0.58944964    -1.40300
C104        C  0.93319428  0.72632527  0.53410646     1.11200
C105        C  0.10888200  0.72107225  0.63354190     1.11300
C106        C  0.94240824  0.71394374  0.62591755     1.11200
C107        C  0.10423847  0.71738677  0.52879666     1.11200
C108        C  0.33687960  0.65278926  0.90961789     0.81900
N109        N  0.30794333  0.67994526  0.89428868    -0.76400
C110        C  0.31626212  0.72071529  0.88868714     0.84400
N111        N  0.35438029  0.73318855  0.89984587    -0.76300
C112        C  0.38258690  0.70555186  0.91596685     0.84500
N113        N  0.37340602  0.66602246  0.92032144    -0.78000
C114        C  0.33685404  0.84653368  0.71581830     0.81900
N115        N  0.30792412  0.83120904  0.74299010    -0.76400
C116        C  0.31624714  0.82562870  0.78375260     0.84400
N117        N  0.35436523  0.83680167  0.79622198    -0.76300
C118        C  0.38256531  0.85291735  0.76856943     0.84500
N119        N  0.37338068  0.85725130  0.72904500    -0.78000
C120        C  0.24734430  0.78962372  0.79787076     0.04000
C121        C  0.28510422  0.80504188  0.81362360     0.04000
C122        C  0.29800452  0.79073489  0.85378065     0.04000
C123        C  0.28511197  0.75056896  0.86809965     0.04000
C124        C  0.24735247  0.73481249  0.85268195     0.04000
C125        C  0.23404216  0.74968515  0.81275102     0.04000
C126        C  0.21554163  0.71970917  0.78277275     0.81900
N127        N  0.20777836  0.73156275  0.74264383    -0.76400
C128        C  0.19725488  0.70300334  0.71496336     0.84400
N129        N  0.19485496  0.66379321  0.72686685    -0.76300
C130        C  0.19726470  0.65189300  0.76607291     0.84500
N131        N  0.20778727  0.67957253  0.79463251    -0.78000
O132        O  0.93586129  0.54840640  0.81306676    -0.78400
O133        O  0.10860242  0.47913379  0.81620002    -0.78400
O134        O  0.07499932  0.56866344  0.76474253    -0.78400
O135        O  0.96771738  0.46934875  0.76882808    -0.78400
O136        O  0.11184949  0.55781563  0.82078120    -0.78500
O137        O  0.92958451  0.49042529  0.82289006    -0.78400
O138        O  0.06984198  0.46754567  0.76239270    -0.78400
O139        O  0.97913118  0.56517759  0.76067303    -0.78500
C140        C  0.94242449  0.56281104  0.77705348     1.11300
C141        C  0.10428077  0.46572191  0.78048070     1.11200
C142        C  0.10889694  0.57046623  0.78416284     1.11300
C143        C  0.93323724  0.47099542  0.78942313     1.11200
O144        O  0.96651683  0.46690138  0.88486895    -0.78400
O145        O  0.06391368  0.56595036  0.89072645    -0.78500
O146        O  0.97855943  0.60859620  0.83191381    -0.78400
O147        O  0.04860703  0.43295555  0.83363444    -0.78400
O148        O  0.06059163  0.47020549  0.88823293    -0.78500
O149        O  0.95929050  0.56938319  0.88634017    -0.78400
O150        O  0.99004204  0.43069997  0.83148359    -0.78400
O151        O  0.05743240  0.60982331  0.83671530    -0.78500
Co152      Co  0.97204293  0.52067609  0.85269526     1.51500
Co153      Co  0.08118767  0.51866104  0.85438306     1.51700
Co154      Co  0.02313876  0.58311009  0.79817179     1.51600
Co155      Co  0.02048309  0.47442884  0.79895546     1.51500
O156        O  0.02628808  0.52635724  0.82621593    -1.40300
C157        C  0.97002316  0.43285727  0.86574053     1.11200
C158        C  0.06702390  0.60221007  0.87347317     1.11300
C159        C  0.95924402  0.60369935  0.86589370     1.11200
C160        C  0.06140058  0.43567778  0.86966510     1.11200
C161        C  0.14203112  0.34476876  0.89061134     0.81900
N162        N  0.16902718  0.32798890  0.86204530    -0.76400
C163        C  0.20852437  0.31662682  0.87259237     0.84400
N164        N  0.22036331  0.32566493  0.91167925    -0.76300
C165        C  0.19252004  0.34281892  0.93930237     0.84500
N166        N  0.15411416  0.35071869  0.92848322    -0.78000
C167        C  0.19962778  0.68251058  0.94832751     0.81900
N168        N  0.16175512  0.67654330  0.93625329    -0.76400
C169        C  0.15091587  0.68446026  0.89785807     0.84400
N170        N  0.17851549  0.70164870  0.87001069    -0.76300
C171        C  0.21760382  0.71070231  0.88184313     0.84500
N172        N  0.22816976  0.69932584  0.92132735    -0.78000
C173        C  0.32061450  0.81937008  0.88241219     0.81900
N174        N  0.33078721  0.80668714  0.92167354    -0.76400
C175        C  0.35082962  0.83211540  0.94663121     0.84400
N176        N  0.36041746  0.86981335  0.93281143    -0.76300
C177        C  0.35078682  0.88361846  0.89512949     0.84500
N178        N  0.33074759  0.85865024  0.86971240    -0.78000
C179        C  0.68422781  0.81549874  0.92980022     0.81900
N180        N  0.68177335  0.85499053  0.91813048    -0.76400
C181        C  0.68416460  0.86665158  0.87863677     0.84400
N182        N  0.69159927  0.83809057  0.84934977    -0.76300
C183        C  0.69689392  0.79732652  0.86046742     0.84500
N184        N  0.69166136  0.78621364  0.90123609    -0.78000
C185        C  0.18067495  0.69027339  0.43766074     0.81900
N186        N  0.16993310  0.65375487  0.42443982    -0.76400
C187        C  0.17426282  0.64456279  0.38491006     0.84400
N188        N  0.19039962  0.67275440  0.35726311    -0.76300
C189        C  0.20159606  0.71086308  0.36972423     0.84500
N190        N  0.19601756  0.71919496  0.41049496    -0.78000
C191        C  0.23762166  0.77975781  0.35560947     0.04000
C192        C  0.27755533  0.79306141  0.34073660     0.04000
C193        C  0.29242933  0.77975190  0.30079829     0.04000
C194        C  0.27667183  0.74199348  0.28538399     0.04000
C195        C  0.23651398  0.72909459  0.29969981     0.04000
C196        C  0.22219940  0.74199951  0.33986325     0.04000
C197        C  0.37445165  0.69025083  0.24382315     0.81900
N198        N  0.36122149  0.65372311  0.23311582    -0.76400
C199        C  0.32169912  0.64453232  0.23747734     0.84400
N200        N  0.29405773  0.67273182  0.25361380    -0.76300
C201        C  0.30652998  0.71084934  0.26477897     0.84500
N202        N  0.34729075  0.71917974  0.25916896    -0.78000
O203        O  0.19963592  0.46130407  0.02633033    -0.78400
O204        O  0.20541934  0.56028546  0.12378149    -0.78400
O205        O  0.25844808  0.41862046  0.11167172    -0.78400
O206        O  0.25666173  0.59430887  0.04172987    -0.78400
O207        O  0.20399377  0.45779596  0.13093627    -0.78500
O208        O  0.20208970  0.55704093  0.02970429    -0.78400
O209        O  0.25879366  0.59652373  0.10029883    -0.78400
O210        O  0.25365942  0.41744382  0.03279399    -0.78500
C211        C  0.21690014  0.42505107  0.02320667     1.11300
C212        C  0.22453296  0.59433888  0.12030427     1.11200
C213        C  0.22445736  0.42348962  0.13097399     1.11300
C214        C  0.22063952  0.59157726  0.02891921     1.11200
O215        O  0.27413602  0.54816827  0.98170650    -0.78400
O216        O  0.27724901  0.47879337  0.15440524    -0.78500
O217        O  0.32561698  0.45863312  0.01526192    -0.78400
O218        O  0.32145232  0.55788820  0.12262427    -0.78400
O219        O  0.26738877  0.53676270  0.16072462    -0.78500
O220        O  0.26958407  0.46948502  0.97840589    -0.78400
O221        O  0.32792065  0.55977219  0.02049159    -0.78400
O222        O  0.32966493  0.46207300  0.11114098    -0.78500
Co223      Co  0.23596365  0.50861142  0.00908634     1.51500
Co224      Co  0.23761735  0.50652667  0.11822982     1.51700
Co225      Co  0.29218548  0.44414891  0.06711175     1.51600
Co226      Co  0.29135086  0.55283108  0.06983822     1.51500
O227        O  0.26411957  0.50089352  0.06398916    -1.40300
C228        C  0.30983939  0.56160812  0.98604839     1.11200
C229        C  0.31327315  0.46441710  0.14784594     1.11300
C230        C  0.30620314  0.45683901  0.98135860     1.11200
C231        C  0.30084674  0.55620852  0.15709820     1.11200
O232        O  0.91528498  0.46940727  0.33270142    -0.78400
O233        O  0.09754702  0.53678937  0.33058090    -0.78400
O234        O  0.04801764  0.46202641  0.39278949    -0.78400
O235        O  0.95729204  0.55968587  0.39108084    -0.78400
O236        O  0.09127620  0.47880811  0.34038955    -0.78500
O237        O  0.91853362  0.54809125  0.33727402    -0.78400
O238        O  0.05941876  0.55786557  0.38464582    -0.78400
O239        O  0.95213970  0.45854394  0.38873633    -0.78500
C240        C  0.91823841  0.45675242  0.36931827     1.11300
C241        C  0.09389849  0.55621632  0.36404972     1.11200
C242        C  0.08472136  0.46439488  0.37640078     1.11300
C243        C  0.92285533  0.56151373  0.37298927     1.11200
O244        O  0.96654654  0.55700389  0.26523726    -0.78400
O245        O  0.06783094  0.45784466  0.26712000    -0.78500
O246        O  0.96969581  0.41739279  0.31676114    -0.78400
O247        O  0.03709437  0.59652033  0.32199551    -0.78400
O248        O  0.06061082  0.56032109  0.26860521    -0.78500
O249        O  0.96321639  0.46126744  0.26275244    -0.78400
O250        O  0.97853076  0.59426039  0.31983080    -0.78400
O251        O  0.04857242  0.41862067  0.32154220    -0.78500
Co252      Co  0.94594587  0.50855712  0.29909461     1.51500
Co253      Co  0.05508517  0.50654500  0.30077493     1.51700
Co254      Co  0.00399846  0.44410197  0.35529783     1.51600
Co255      Co  0.00665051  0.55279067  0.35452005     1.51500
O256        O  0.00084434  0.50086021  0.32726125    -1.40300
C257        C  0.96574144  0.59153416  0.28379886     1.11200
C258        C  0.06788393  0.42352540  0.28756069     1.11300
C259        C  0.96010156  0.42500856  0.28000487     1.11200
C260        C  0.05711030  0.59436355  0.28773660     1.11200
C261        C  0.22986739  0.33026584  0.29294622     0.81900
N262        N  0.24097965  0.33551406  0.25217791    -0.76400
C263        C  0.21169494  0.34295805  0.22361849     0.84400
N264        N  0.17220495  0.34540928  0.23529039    -0.76300
C265        C  0.16054370  0.34299537  0.27478432     0.84500
N266        N  0.18910452  0.33554907  0.30406637    -0.78000
C267        C  0.82750450  0.34472245  0.20512498     0.81900
N268        N  0.79894706  0.32792434  0.23211722    -0.76400
C269        C  0.80949858  0.31655552  0.27161237     0.84400
N270        N  0.84858224  0.32560410  0.28345268    -0.76300
C271        C  0.87619659  0.34277690  0.25561314     0.84500
N272        N  0.86537290  0.35068475  0.21720908    -0.78000
C273        C  0.88513862  0.68245444  0.26279968     0.81900
N274        N  0.87306598  0.67649797  0.22492607    -0.76400
C275        C  0.83466457  0.68440448  0.21409266     0.84400
N276        N  0.80681682  0.70156986  0.24170586    -0.76300
C277        C  0.81864628  0.71061318  0.28079391     0.84500
N278        N  0.85813892  0.69924610  0.29135453    -0.78000
O279        O  0.82315573  0.56939146  0.02245323    -0.78400
O280        O  0.82508353  0.47017394  0.12371517    -0.78400
O281        O  0.77352687  0.60977638  0.12060997    -0.78400
O282        O  0.76834967  0.43067813  0.05315464    -0.78400
O283        O  0.82755093  0.56591583  0.12706571    -0.78500
O284        O  0.82172077  0.46690398  0.02964124    -0.78400
O285        O  0.77049707  0.43291330  0.11172180    -0.78400
O286        O  0.76871603  0.60857919  0.04173565    -0.78500
C287        C  0.80269758  0.60370097  0.02241928     1.11300
C288        C  0.80652615  0.43564143  0.12451547     1.11200
C289        C  0.81028905  0.60217045  0.13018834     1.11300
C290        C  0.80260467  0.43285287  0.03313682     1.11200
O291        O  0.75974035  0.49042176  0.99271309    -0.78400
O292        O  0.75761645  0.55775030  0.17501178    -0.78500
O293        O  0.69749343  0.56513636  0.04229806    -0.78400
O294        O  0.69924947  0.46747796  0.13296929    -0.78400
O295        O  0.75305236  0.47906908  0.17173466    -0.76100
O296        O  0.74988963  0.54839641  0.99901847    -0.78400
O297        O  0.70568700  0.46931326  0.03083806    -0.78400
O298        O  0.70157055  0.56858969  0.13817213    -0.78500
Co299      Co  0.78953050  0.52066767  0.03518664     1.51500
Co300      Co  0.79122331  0.51861378  0.14433095     1.51700
Co301      Co  0.73498839  0.58306520  0.08631051     1.51600
Co302      Co  0.73580769  0.47438669  0.08361044     1.51500
O303        O  0.76305065  0.52632046  0.08943531    -1.40300
C304        C  0.72628262  0.47097772  0.99635801     1.11200
C305        C  0.72099318  0.57038617  0.17206993     1.11300
C306        C  0.71387278  0.56278678  0.00558861     1.11200
C307        C  0.71733813  0.46564852  0.16740851     1.11200
C308        C  0.65264702  0.84646906  0.40005212     0.81900
N309        N  0.66587521  0.85721002  0.43656853    -0.76400
C310        C  0.70540326  0.85287782  0.44575323     0.84400
N311        N  0.73304626  0.83673943  0.41755704    -0.76300
C312        C  0.72057718  0.82554527  0.37944951     0.84500
N313        N  0.67980929  0.83112509  0.37112581    -0.78000
C314        C  0.84643488  0.65267611  0.40006288     0.81900
N315        N  0.83109149  0.67983541  0.37113396    -0.76400
C316        C  0.82551250  0.72060649  0.37945352     0.84400
N317        N  0.83670547  0.73308197  0.41755860    -0.76300
C318        C  0.85284250  0.70544222  0.44575724     0.84500
N319        N  0.85717476  0.66591110  0.43657698    -0.78000
C320        C  0.79059657  0.79062683  0.36120772     0.04000
C321        C  0.80490861  0.75046305  0.34831068     0.04000
C322        C  0.78948892  0.73470547  0.31055595     0.04000
C323        C  0.74955333  0.74957745  0.29724882     0.04000
C324        C  0.73468132  0.78951564  0.31055318     0.04000
C325        C  0.75043516  0.80493940  0.34830832     0.04000
C326        C  0.71958245  0.71960154  0.27873855     0.81900
N327        N  0.67945550  0.73146181  0.27095505    -0.76400
C328        C  0.65178054  0.70290476  0.26041711     0.84400
N329        N  0.66367887  0.66369427  0.25802343    -0.76300
C330        C  0.70288268  0.65178695  0.26045506     0.84500
N331        N  0.73143775  0.67946473  0.27099033    -0.78000
O332        O  0.54836766  0.74996198  0.99900350    -0.78400
O333        O  0.47902043  0.75304976  0.17170882    -0.78400
O334        O  0.56854465  0.70158245  0.13813840    -0.78400
O335        O  0.46927528  0.70577306  0.03077566    -0.78400
O336        O  0.55769957  0.75761224  0.17500416    -0.78500
O337        O  0.49039958  0.75984400  0.99268475    -0.78400
O338        O  0.46741445  0.69927563  0.13290518    -0.78400
O339        O  0.56508674  0.69754088  0.04226173    -0.78500
C340        C  0.56273886  0.71393423  0.00555833     1.11300
C341        C  0.46558543  0.71734470  0.16735666     1.11200
C342        C  0.57035033  0.72099442  0.17204246     1.11300
C343        C  0.47094808  0.72638799  0.99630743     1.11200
O344        O  0.46689169  0.82180878  0.02964676    -0.78400
O345        O  0.56587314  0.82756857  0.12709549    -0.78500
O346        O  0.60854710  0.76875318  0.04172955    -0.78400
O347        O  0.43286971  0.77053659  0.11169664    -0.78400
O348        O  0.47013357  0.82510924  0.12373536    -0.78500
O349        O  0.56938218  0.82321757  0.02247359    -0.78400
O350        O  0.43065203  0.76843402  0.05312677    -0.78400
O351        O  0.60973143  0.77354433  0.12060615    -0.78500
Co352      Co  0.52064669  0.78960112  0.03518373     1.51500
Co353      Co  0.51856855  0.79123428  0.14433507     1.51700
Co354      Co  0.58302096  0.73501794  0.08628979     1.51600
Co355      Co  0.47434489  0.73586146  0.08356886     1.51500
O356        O  0.52628163  0.76309053  0.08942144    -1.40300
C357        C  0.43283611  0.80269927  0.03312756     1.11200
C358        C  0.60212622  0.81030263  0.13020599     1.11300
C359        C  0.60368409  0.80274721  0.02243229     1.11200
C360        C  0.43560085  0.80655453  0.12452227     1.11200
C361        C  0.34467820  0.82751165  0.20514778     0.81900
N362        N  0.35063175  0.86538531  0.21722262    -0.76400
C363        C  0.34272956  0.87621573  0.25562796     0.84400
N364        N  0.32556552  0.84860104  0.28347308    -0.76300
C365        C  0.31651978  0.80951409  0.27164163     0.84500
N366        N  0.32788821  0.79895461  0.23214487    -0.78000
C367        C  0.68244537  0.88516563  0.26277924     0.81900
N368        N  0.69922948  0.85816888  0.29134081    -0.76400
C369        C  0.71059340  0.81867172  0.28078760     0.84400
N370        N  0.70154878  0.80683306  0.24170276    -0.76300
C371        C  0.68438852  0.83467661  0.21408428     0.84500
N372        N  0.67649220  0.87308408  0.22490761    -0.78000
C373        C  0.69024371  0.37450009  0.24383070     0.81900
N374        N  0.71916648  0.34733273  0.25917052    -0.76400
C375        C  0.71084437  0.30656452  0.26474088     0.84400
N376        N  0.67273765  0.29409442  0.25354052    -0.76300
C377        C  0.64454535  0.32174234  0.23740614     0.84500
N378        N  0.65372871  0.36127132  0.23308405    -0.78000
C379        C  0.77973756  0.29245842  0.30076497     0.04000
C380        C  0.79304076  0.27758578  0.34070184     0.04000
C381        C  0.77974030  0.23764746  0.35557170     0.04000
C382        C  0.74198509  0.22222245  0.33981510     0.04000
C383        C  0.72908493  0.23653790  0.29965322     0.04000
C384        C  0.74198220  0.27670078  0.28534214     0.04000
C385        C  0.71084723  0.20161899  0.36967569     0.81900
N386        N  0.67273872  0.19042652  0.35720590    -0.76400
C387        C  0.64454439  0.17429060  0.38484998     0.84400
N388        N  0.65372750  0.16995717  0.42437847    -0.76300
C389        C  0.69024419  0.18069743  0.43760788     0.84500
N390        N  0.71916887  0.19603993  0.41044397    -0.78000
O391        O  0.45854218  0.95217006  0.38871247    -0.78400
O392        O  0.55784375  0.05945922  0.38458342    -0.78400
O393        O  0.54807424  0.91855561  0.33724328    -0.78400
O394        O  0.47878636  0.09130025  0.34033805    -0.78400
O395        O  0.55966672  0.95733283  0.39103908    -0.78500
O396        O  0.46202468  0.04804717  0.39274916    -0.78400
O397        O  0.53676397  0.09757720  0.33051498    -0.78400
O398        O  0.46939223  0.91529842  0.33268498    -0.78500
C399        C  0.45674120  0.91826326  0.36930276     1.11300
C400        C  0.55619314  0.09393570  0.36398176     1.11200
C401        C  0.56149522  0.92288918  0.37295651     1.11300
C402        C  0.46438829  0.08474967  0.37635602     1.11200
O403        O  0.41860186  0.04858820  0.32151347    -0.78400
O404        O  0.59423576  0.97855623  0.31978186    -0.78500
O405        O  0.46124129  0.96321300  0.26272751    -0.78400
O406        O  0.56028976  0.06062900  0.26854310    -0.78400
O407        O  0.59649331  0.03712315  0.32193117    -0.78500
O408        O  0.41737747  0.96970830  0.31674446    -0.78400
O409        O  0.45781078  0.06783825  0.26707700    -0.78400
O410        O  0.55697905  0.96654956  0.26519584    -0.78500
Co411      Co  0.44409171  0.00402103  0.35526888     1.51500
Co412      Co  0.55276925  0.00668272  0.35446787     1.51700
Co413      Co  0.50853627  0.94595495  0.29906443     1.51600
Co414      Co  0.50651807  0.05510395  0.30072152     1.51500
O415        O  0.50084051  0.00086487  0.32721787    -1.40300
C416        C  0.42349655  0.06789136  0.28752628     1.11200
C417        C  0.59150924  0.96575570  0.28375401     1.11300
C418        C  0.42498573  0.96010561  0.27998857     1.11200
C419        C  0.59433283  0.05713449  0.28767056     1.11200
O420        O  0.46943609  0.26958389  0.97837508    -0.78400
O421        O  0.53675715  0.26743818  0.16067466    -0.78400
O422        O  0.46204277  0.32968440  0.11110528    -0.78400
O423        O  0.55970830  0.32793814  0.02042458    -0.78400
O424        O  0.47878396  0.27728039  0.15437417    -0.78500
O425        O  0.54811521  0.27413692  0.98165371    -0.78400
O426        O  0.55786489  0.32149574  0.12255500    -0.78400
O427        O  0.45858904  0.32562360  0.01522898    -0.78500
C428        C  0.45679438  0.30620607  0.98132653     1.11300
C429        C  0.55620021  0.30089776  0.15703329     1.11200
C430        C  0.46439343  0.31329910  0.14781164     1.11300
C431        C  0.56153821  0.30985052  0.98598347     1.11200
O432        O  0.55700224  0.20209855  0.02966157    -0.78400
O433        O  0.45779546  0.20401559  0.13092431    -0.78500
O434        O  0.41740591  0.25366330  0.03277520    -0.78400
O435        O  0.59650119  0.25883158  0.10023419    -0.78400
O436        O  0.56027700  0.20545638  0.12374127    -0.78500
O437        O  0.46126323  0.19963816  0.02630435    -0.78400
O438        O  0.59426378  0.25668305  0.04166665    -0.78400
O439        O  0.41860456  0.25845671  0.11165353    -0.78500
Co440      Co  0.50856741  0.23596666  0.00905013     1.51500
Co441      Co  0.50651520  0.23764700  0.11819704     1.51700
Co442      Co  0.44411615  0.29219502  0.06708457     1.51600
Co443      Co  0.55279390  0.29137583  0.06977993     1.51500
O444        O  0.50086081  0.26413359  0.06395177    -1.40300
C445        C  0.59153497  0.22065389  0.02886878     1.11200
C446        C  0.42348557  0.22447147  0.13096354     1.11300
C447        C  0.42501158  0.21690354  0.02318232     1.11200
C448        C  0.59432619  0.22457481  0.12025069     1.11200
C449        C  0.34294666  0.21170582  0.22360655     0.81900
N450        N  0.33550628  0.24098996  0.25217003    -0.76400
C451        C  0.33025154  0.22987353  0.29293645     0.84400
N452        N  0.33552488  0.18910789  0.30405102    -0.76300
C453        C  0.34296520  0.16054678  0.27476426     0.84500
N454        N  0.34538461  0.17221320  0.23527186    -0.78000
C455        C  0.34470265  0.14206789  0.89056629     0.81900
N456        N  0.35066394  0.15414290  0.92843938    -0.76400
C457        C  0.34277497  0.19254945  0.93926893     0.84400
N458        N  0.32561864  0.22040108  0.91165564    -0.76300
C459        C  0.31656894  0.20856943  0.87256838     0.84500
N460        N  0.32792164  0.16907196  0.86201078    -0.78000
C461        C  0.68246580  0.19966831  0.94827412     0.81900
N462        N  0.69926540  0.22822457  0.92128161    -0.76400
C463        C  0.71063166  0.21767142  0.88178503     0.84400
N464        N  0.70157504  0.17858824  0.86994382    -0.76300
C465        C  0.68439911  0.15097582  0.89778286     0.84500
N466        N  0.67649821  0.16179924  0.93618899    -0.78000
O467        O  0.56929834  0.95936426  0.88631845    -0.78400
O468        O  0.47014752  0.06066864  0.88814879    -0.78400
O469        O  0.60976206  0.05747506  0.83664591    -0.78400
O470        O  0.43063562  0.99009444  0.83142169    -0.78400
O471        O  0.56587908  0.06399106  0.89064467    -0.78500
O472        O  0.46682377  0.96660088  0.88482522    -0.78400
O473        O  0.43290145  0.04865888  0.83355678    -0.78400
O474        O  0.60852226  0.97859427  0.83188626    -0.78500
C475        C  0.60361594  0.95929865  0.86587574     1.11300
C476        C  0.43562211  0.06146575  0.86958309     1.11200
C477        C  0.60214065  0.06709024  0.87339616     1.11300
C478        C  0.43278501  0.97009845  0.86569114     1.11200
O479        O  0.49035813  0.92962262  0.82287712    -0.78400
O480        O  0.55775942  0.11189250  0.82067595    -0.78500
O481        O  0.56512270  0.97913471  0.76063635    -0.78400
O482        O  0.46748271  0.06985904  0.76230251    -0.78400
O483        O  0.47907793  0.10864562  0.81609094    -0.78500
O484        O  0.54833786  0.93589303  0.81304930    -0.78400
O485        O  0.46929428  0.96772528  0.76879145    -0.78400
O486        O  0.56862865  0.07501005  0.76465896    -0.78500
Co487      Co  0.52060475  0.97210164  0.85265718     1.51500
Co488      Co  0.51860032  0.08124923  0.85428847     1.51700
Co489      Co  0.58305392  0.02316154  0.79811639     1.51600
Co490      Co  0.47437195  0.02051580  0.79888585     1.51500
O491        O  0.52629600  0.02633317  0.82614774    -1.40300
C492        C  0.47093567  0.93325562  0.78940643     1.11200
C493        C  0.57042897  0.10891866  0.78406539     1.11300
C494        C  0.56274594  0.94243499  0.77703335     1.11200
C495        C  0.46565461  0.10430626  0.78037943     1.11200
C496        C  0.65268517  0.33693378  0.90955672     0.81900
N497        N  0.66591365  0.37345212  0.92029954    -0.76400
C498        C  0.70544097  0.38263325  0.91598069     0.84400
N499        N  0.73309007  0.35443732  0.89985247    -0.76300
C500        C  0.72061966  0.31632791  0.88865356     0.84500
N501        N  0.67985355  0.30800699  0.89422192    -0.78000
C502        C  0.85288359  0.38264084  0.76855097     0.81900
N503        N  0.85720274  0.37346510  0.72901882    -0.76400
C504        C  0.84645920  0.33694947  0.71578579     0.84400
N505        N  0.83112623  0.30801853  0.74294853    -0.76300
C506        C  0.82555856  0.31633416  0.78372101     0.84500
N507        N  0.83675670  0.35444116  0.79619432    -0.78000
C508        C  0.79064476  0.29808931  0.85374429     0.04000
C509        C  0.75048570  0.28518887  0.86805507     0.04000
C510        C  0.73473133  0.24743021  0.85263261     0.04000
C511        C  0.74961026  0.23412613  0.81269594     0.04000
C512        C  0.78954396  0.24743314  0.79782624     0.04000
C513        C  0.80496231  0.28519221  0.81358130     0.04000
C514        C  0.71963856  0.21562506  0.78271490     0.81900
N515        N  0.67951235  0.20784248  0.79456904    -0.76400
C516        C  0.65183595  0.19732329  0.76600584     0.84400
N517        N  0.66373566  0.19495332  0.72679325    -0.76300
C518        C  0.70294196  0.19736949  0.71489283     0.84500
N519        N  0.73149839  0.20788549  0.74257697    -0.78000
O520        O  0.74989268  0.93590099  0.61151876    -0.78400
O521        O  0.75305106  0.10861450  0.54218308    -0.78400
O522        O  0.70159785  0.07506083  0.63172718    -0.78400
O523        O  0.70567419  0.96771824  0.53245156    -0.78400
O524        O  0.75764335  0.11189768  0.62086135    -0.78500
O525        O  0.75973099  0.92959010  0.55354192    -0.78400
O526        O  0.69924128  0.06984982  0.53061294    -0.78400
O527        O  0.69750893  0.97918665  0.62827998    -0.78500
C528        C  0.71388234  0.94247510  0.62592455     1.11300
C529        C  0.71733295  0.10428811  0.52877224     1.11200
C530        C  0.72102464  0.10895813  0.63351274     1.11300
C531        C  0.72626779  0.93323668  0.53410807     1.11200
O532        O  0.82170649  0.96651855  0.53000477    -0.78400
O533        O  0.82757757  0.06395147  0.62900567    -0.78500
O534        O  0.76874675  0.97861914  0.67169436    -0.78400
O535        O  0.77048107  0.04860099  0.49602790    -0.78400
O536        O  0.82507995  0.06059144  0.53326987    -0.78500
O537        O  0.82316950  0.95932214  0.63249045    -0.78400
O538        O  0.76832573  0.99003466  0.49379697    -0.78400
O539        O  0.77356816  0.05749614  0.67288575    -0.78500
Co540      Co  0.78953236  0.97206398  0.58377797     1.51500
Co541      Co  0.79123454  0.08121256  0.58171655     1.51700
Co542      Co  0.73501621  0.02319703  0.64619181     1.51600
Co543      Co  0.73579985  0.02049144  0.53751409     1.51500
O544        O  0.76306021  0.02631677  0.58943767    -1.40300
C545        C  0.80258090  0.97001673  0.49596024     1.11200
C546        C  0.81032765  0.06707704  0.66526507     1.11300
C547        C  0.80272033  0.95929192  0.66680521     1.11200
C548        C  0.80651370  0.06139109  0.49874363     1.11200
C549        C  0.82750307  0.14200608  0.40783829     0.81900
N550        N  0.79894980  0.16899685  0.39103168    -0.76400
C551        C  0.80949943  0.20849411  0.37967188     0.84400
N552        N  0.84857966  0.22033928  0.38873157    -0.76300
C553        C  0.87618957  0.19250188  0.40591454     0.84500
N554        N  0.86536654  0.15409689  0.41381897    -0.78000
C555        C  0.83472008  0.15098333  0.74749952     0.81900
N556        N  0.87312189  0.16181536  0.73960113    -0.76400
C557        C  0.88519874  0.19968754  0.74557229     0.84400
N558        N  0.85819707  0.22823761  0.76237006    -0.76300
C559        C  0.81870505  0.21767778  0.77372909     0.84500
N560        N  0.80687129  0.17859089  0.76467204    -0.78000
C561        C  0.30657976  0.20170220  0.77390683     0.81900
N562        N  0.34734526  0.19609866  0.78222913    -0.76400
C563        C  0.37449991  0.18074308  0.75330088     0.84400
N564        N  0.36126369  0.17001579  0.71678253    -0.76300
C565        C  0.32173788  0.17437202  0.70759900     0.84500
N566        N  0.29410352  0.19052094  0.73579658    -0.78000
C567        C  0.23768095  0.29254513  0.84282160     0.04000
C568        C  0.27761692  0.27766898  0.85612025     0.04000
C569        C  0.29248594  0.23773316  0.84280746     0.04000
C570        C  0.27672777  0.22231670  0.80504933     0.04000
C571        C  0.23656722  0.23663739  0.79215574     0.04000
C572        C  0.22225744  0.27679802  0.80506350     0.04000
O573        O  0.26951884  0.91531928  0.53254541    -0.78400
O574        O  0.26740187  0.09764503  0.59981469    -0.78400
O575        O  0.32965565  0.04803167  0.52512280    -0.78400
O576        O  0.32788203  0.95739241  0.62281246    -0.78400
O577        O  0.27725754  0.09131667  0.54184432    -0.78500
O578        O  0.27408060  0.91862242  0.61122479    -0.78400
O579        O  0.32145068  0.05952394  0.62093768    -0.78400
O580        O  0.32556925  0.95215248  0.52169766    -0.78500
C581        C  0.30614258  0.91825548  0.51990783     1.11300
C582        C  0.30085814  0.09400521  0.61926154     1.11200
C583        C  0.31327747  0.08474274  0.52746382     1.11300
C584        C  0.30979118  0.92295328  0.62465155     1.11200
O585        O  0.20205207  0.96664521  0.62010510    -0.78400
O586        O  0.20399490  0.06787656  0.52084673    -0.78500
O587        O  0.25361701  0.96970837  0.48050548    -0.78400
O588        O  0.25878096  0.03722190  0.65957430    -0.78400
O589        O  0.20541530  0.06072613  0.62333827    -0.78500
O590        O  0.19958944  0.96326995  0.52436673    -0.78400
O591        O  0.25663429  0.97865206  0.65736436    -0.78400
O592        O  0.25844031  0.04858358  0.48167200    -0.78500
Co593      Co  0.23591342  0.94601458  0.57167219     1.51500
Co594      Co  0.23761122  0.05515986  0.56957994     1.51700
Co595      Co  0.29215862  0.00401363  0.50720547     1.51600
Co596      Co  0.29132697  0.00674989  0.61588164     1.51500
O597        O  0.26408997  0.00090801  0.56394871    -1.40300
C598        C  0.22060648  0.96585364  0.65463802     1.11200
C599        C  0.22445774  0.06790009  0.48653958     1.11300
C600        C  0.21685204  0.96013872  0.48811347     1.11200
C601        C  0.22452847  0.05724169  0.65739077     1.11200
O602        O  0.95216365  0.32563711  0.52163911    -0.78400
O603        O  0.05943527  0.32157772  0.62096112    -0.78400
O604        O  0.91855760  0.27417638  0.61119983    -0.78400
O605        O  0.09130231  0.27730721  0.54191173    -0.78400
O606        O  0.95730464  0.32799556  0.62278426    -0.78500
O607        O  0.04803988  0.32969926  0.52512012    -0.78400
O608        O  0.09756969  0.26751362  0.59989328    -0.78400
O609        O  0.91531018  0.26960107  0.53251767    -0.78500
C610        C  0.91826334  0.30621559  0.51985290     1.11300
C611        C  0.09391742  0.30098608  0.61931360     1.11200
C612        C  0.92287183  0.30989546  0.62461644     1.11300
C613        C  0.08474482  0.31331530  0.52749107     1.11200
O614        O  0.04859904  0.25844038  0.48173184    -0.78400
O615        O  0.97855559  0.25674894  0.65736416    -0.78500
O616        O  0.96324392  0.19965254  0.52438221    -0.78400
O617        O  0.06063929  0.20553703  0.62343889    -0.78400
O618        O  0.03711727  0.25893299  0.65962743    -0.78500
O619        O  0.96972148  0.25365520  0.48050035    -0.78400
O620        O  0.06786269  0.20402858  0.52096680    -0.78400
O621        O  0.96658023  0.20214675  0.62011517    -0.78500
Co622      Co  0.00402336  0.29219904  0.50720358     1.51500
Co623      Co  0.00666933  0.29144290  0.61589196     1.51700
Co624      Co  0.94597379  0.23599856  0.57166821     1.51600
Co625      Co  0.05511216  0.23769467  0.56965726     1.51500
O626        O  0.00086899  0.26417302  0.56396664    -1.40300
C627        C  0.06791406  0.22446222  0.48664404     1.11200
C628        C  0.96577692  0.22071117  0.65464362     1.11300
C629        C  0.96012210  0.21690068  0.48812297     1.11200
C630        C  0.05713650  0.22467554  0.65747659     1.11200
C631        C  0.21170236  0.16053429  0.40599947     0.81900
N632        N  0.17221323  0.17220611  0.40846825    -0.76400
C633        C  0.16055385  0.21170172  0.40608193     0.84400
N634        N  0.18911390  0.24098651  0.39864021    -0.76300
C635        C  0.22987418  0.22986756  0.39333437     0.84500
N636        N  0.24098608  0.18909657  0.39855936    -0.78000
C637        C  0.18072620  0.37460290  0.75335347     0.81900
N638        N  0.19607447  0.34743204  0.78226829    -0.76400
C639        C  0.20164813  0.30666483  0.77393476     0.84400
N640        N  0.19044087  0.29420225  0.73582794    -0.76300
C641        C  0.17429885  0.32185404  0.70764357     0.84500
N642        N  0.16997478  0.36138158  0.71683702    -0.78000
C643        C  0.20791982  0.20800746  0.76956487     0.81900
N644        N  0.22060004  0.16873653  0.75939696    -0.76400
C645        C  0.19515892  0.14377671  0.73937715     0.84400
N646        N  0.15746057  0.15759038  0.72980431    -0.76300
C647        C  0.14365883  0.19527994  0.73943160     0.84500
N648        N  0.16864042  0.22069968  0.75944979    -0.78000
C649        C  0.70648277  0.20790053  0.27101729     0.81900
N650        N  0.69633914  0.16862597  0.28370203    -0.76400
C651        C  0.67630592  0.14365955  0.25827677     0.84400
N652        N  0.66669450  0.15747438  0.22058728    -0.76300
C653        C  0.67629697  0.19516752  0.20677978     0.84500
N654        N  0.69633096  0.22059266  0.23174516    -0.78000
C655        C  0.20787142  0.70649687  0.27107222     0.81900
N656        N  0.22056055  0.69633911  0.23179637    -0.76400
C657        C  0.19512631  0.67631368  0.20683609     0.84400
N658        N  0.15743375  0.66672174  0.22064517    -0.76300
C659        C  0.14362428  0.67633731  0.25833863     0.84500
N660        N  0.16859895  0.69636359  0.28375886    -0.78000
C661        C  0.32839080  0.32840633  0.28006921     0.81900
N662        N  0.36721874  0.31513330  0.26685069    -0.76400
C663        C  0.39256586  0.34144676  0.24492960     0.84400
N664        N  0.37967963  0.37969972  0.23638412    -0.76300
C665        C  0.34143304  0.39259265  0.24495071     0.84500
N666        N  0.31512253  0.36724147  0.26687089    -0.78000
C667        C  0.32839627  0.21699718  0.39146685     0.81900
N668        N  0.31512496  0.20377934  0.43029463    -0.76400
C669        C  0.34143736  0.18185802  0.45564175     0.84400
N670        N  0.37968913  0.17331131  0.44275228    -0.76300
C671        C  0.39257898  0.18187433  0.40450422     0.84500
N672        N  0.36722989  0.20379567  0.37819460    -0.78000
C673        C  0.18185967  0.39258346  0.40452361     0.81900
N674        N  0.17331510  0.37969720  0.44277678    -0.76400
C675        C  0.18187147  0.34144713  0.45566597     0.84400
N676        N  0.20379112  0.31513474  0.43031453    -0.76300
C677        C  0.21699422  0.32840424  0.39148099     0.84500
N678        N  0.20377926  0.36723351  0.37820967    -0.78000
C679        C  0.26116423  0.26116820  0.37861549     0.04000
C680        C  0.24598619  0.30102484  0.36409868     0.04000
C681        C  0.26116057  0.31554503  0.32424206     0.04000
C682        C  0.30101579  0.30102591  0.30906256     0.04000
C683        C  0.31553473  0.26116929  0.32423564     0.04000
C684        C  0.30101914  0.24599242  0.36409185     0.04000
C685        C  0.12750176  0.30968649  0.64526842    -0.11600
C686        C  0.15268789  0.31072998  0.67183032    -0.13100
C687        C  0.12118858  0.32914244  0.50778670    -0.11600
C688        C  0.15348141  0.32931543  0.48803933    -0.13100
C689        C  0.10689555  0.20888371  0.71884893    -0.11600
C690        C  0.08125052  0.21287271  0.69265189    -0.13100
C691        C  0.09618315  0.21620327  0.45367658    -0.11600
C692        C  0.12256836  0.21952974  0.42722010    -0.13100
C693        C  0.21621994  0.09613620  0.45353795    -0.11600
C694        C  0.21954535  0.12252062  0.42707924    -0.13100
C695        C  0.21271168  0.08138136  0.69254764    -0.11600
C696        C  0.20873661  0.10702585  0.71875000    -0.13100
C697        C  0.32931041  0.15346735  0.48801580    -0.11600
C698        C  0.32913157  0.12117686  0.50776694    -0.13100
C699        C  0.31059172  0.15278389  0.67177855    -0.11600
C700        C  0.30954010  0.12760131  0.64521210    -0.13100
C701        C  0.92087544  0.20893807  0.72088159    -0.11600
C702        C  0.94410148  0.20735554  0.69118111    -0.13100
C703        C  0.91154260  0.20254770  0.42848507    -0.11600
C704        C  0.93597316  0.20200135  0.45592616    -0.13100
C705        C  0.82523790  0.09120704  0.69747077    -0.11600
C706        C  0.82468800  0.11562913  0.72492114    -0.13100
C707        C  0.81985506  0.08308133  0.46220891    -0.11600
C708        C  0.81826221  0.10631731  0.43251695    -0.13100
C709        C  0.70860332  0.14346988  0.65768381    -0.11600
C710        C  0.71162865  0.17208480  0.68028695    -0.13100
C711        C  0.86328197  0.32741434  0.67637769    -0.11600
C712        C  0.88888571  0.32443248  0.64913661    -0.13100
C713        C  0.61724886  0.17200967  0.77467399    -0.11600
C714        C  0.59463912  0.14340068  0.77164080    -0.13100
C715        C  0.44113038  0.13828285  0.76582807    -0.11600
C716        C  0.41389490  0.16389187  0.76283939    -0.13100
C717        C  0.66181016  0.11563410  0.88773944    -0.11600
C718        C  0.63435158  0.09122234  0.88829097    -0.13100
C719        C  0.36939427  0.10638935  0.88132214    -0.11600
C720        C  0.39909026  0.08316106  0.88291935    -0.13100
C721        C  0.62806701  0.20730870  0.00717656    -0.11600
C722        C  0.65776661  0.20890764  0.98395111    -0.13100
C723        C  0.36535292  0.20257649  0.97462279    -0.11600
C724        C  0.39280171  0.20201372  0.99904567    -0.13100
C725        C  0.42494125  0.32931791  0.21654013    -0.11600
C726        C  0.44469420  0.32914136  0.18425099    -0.13100
C727        C  0.39049757  0.21622342  0.15921226    -0.11600
C728        C  0.36404308  0.21954599  0.18560093    -0.13100
C729        C  0.62948799  0.21275552  0.14438097    -0.11600
C730        C  0.65568649  0.20876512  0.17002604    -0.13100
C731        C  0.58605469  0.32439762  0.95200090    -0.11600
C732        C  0.61328737  0.32738933  0.92638897    -0.13100
C733        C  0.65570308  0.10690084  0.27186947    -0.11600
C734        C  0.62950271  0.08125553  0.27585643    -0.13100
C735        C  0.36407122  0.12254434  0.28259606    -0.11600
C736        C  0.39052099  0.09615155  0.27927082    -0.13100
C737        C  0.44470272  0.12119896  0.39219130    -0.11600
C738        C  0.42495734  0.15349211  0.39236914    -0.13100
C739        C  0.70278357  0.13826684  0.50425083    -0.11600
C740        C  0.69978727  0.16386863  0.47701005    -0.13100
C741        C  0.58215256  0.12752207  0.37266764    -0.11600
C742        C  0.60872330  0.15269848  0.37371527    -0.13100
C743        C  0.58216144  0.30957427  0.19062164    -0.11600
C744        C  0.60872890  0.31061246  0.21580246    -0.13100
C745        C  0.65774153  0.92083991  0.27201477    -0.11600
C746        C  0.62804136  0.94406319  0.27041187    -0.13100
C747        C  0.39276885  0.93597847  0.26509901    -0.11600
C748        C  0.36531081  0.91156471  0.26566030    -0.13100
C749        C  0.66180403  0.82463766  0.17874009    -0.11600
C750        C  0.63434501  0.82519404  0.15432903    -0.13100
C751        C  0.39907660  0.81987973  0.14624138    -0.11600
C752        C  0.36938300  0.81827149  0.16947319    -0.13100
C753        C  0.59455622  0.70856608  0.20652677    -0.11600
C754        C  0.61717853  0.71158784  0.23512633    -0.13100
C755        C  0.71653583  0.87447296  0.48157401    -0.11600
C756        C  0.71758126  0.89965090  0.50814622    -0.13100
C757        C  0.61324790  0.86330255  0.39050645    -0.11600
C758        C  0.58601278  0.88890916  0.38750873    -0.13100
C759        C  0.71157461  0.61717059  0.23518604    -0.11600
C760        C  0.70855939  0.59455730  0.20657772    -0.13100
C761        C  0.70278928  0.44113402  0.20139221    -0.11600
C762        C  0.69979149  0.41390002  0.22700143    -0.13100
C763        C  0.71656903  0.41845031  0.93758638    -0.11600
C764        C  0.71760494  0.44501677  0.96276952    -0.13100
C765        C  0.82463447  0.66183653  0.17873374    -0.11600
C766        C  0.82518994  0.63438560  0.15431131    -0.13100
C767        C  0.81826887  0.36941754  0.16944535    -0.11600
C768        C  0.81986895  0.39911219  0.14621342    -0.13100
C769        C  0.92081457  0.65775823  0.27204436    -0.11600
C770        C  0.94404639  0.62806369  0.27045280    -0.13100
C771        C  0.91154833  0.36534936  0.26565535    -0.11600
C772        C  0.93596957  0.39279963  0.26510515    -0.13100
C773        C  0.15346107  0.42495017  0.39239546    -0.11600
C774        C  0.12116660  0.44469429  0.39222646    -0.13100
C775        C  0.12254600  0.36410747  0.28262289    -0.11600
C776        C  0.09615205  0.39055587  0.27930336    -0.13100
C777        C  0.08122500  0.62953758  0.27592620    -0.11600
C778        C  0.10686794  0.65573983  0.27193626    -0.13100
C779        C  0.88887194  0.58603401  0.38753249    -0.11600
C780        C  0.86326667  0.61327236  0.39052255    -0.13100
C781        C  0.20871569  0.65569725  0.17008063    -0.11600
C782        C  0.21270280  0.62949738  0.14443692    -0.13100
C783        C  0.21621108  0.39049480  0.15921584    -0.11600
C784        C  0.21953466  0.36404238  0.18560642    -0.13100
C785        C  0.32912066  0.44473218  0.18428825    -0.11600
C786        C  0.32930198  0.42497929  0.21657711    -0.13100
C787        C  0.41383397  0.69979749  0.22694955    -0.11600
C788        C  0.44105884  0.70278957  0.20132879    -0.13100
C789        C  0.31055917  0.60870940  0.21589220    -0.11600
C790        C  0.30951869  0.58214899  0.19070318    -0.13100
C791        C  0.12748201  0.58217561  0.37274141    -0.11600
C792        C  0.15266309  0.60874401  0.37378468    -0.13100
C793        C  0.66314195  0.80766097  0.96781123    -0.11600
C794        C  0.63668344  0.81099109  0.99419580    -0.13100
C795        C  0.63658311  0.93103224  0.87414053    -0.11600
C796        C  0.66303595  0.90464381  0.87081213    -0.13100
C797        C  0.39767493  0.81453673  0.00900550    -0.11600
C798        C  0.37146334  0.81852759  0.98337054    -0.13100
C799        C  0.39760063  0.94600299  0.87751682    -0.11600
C800        C  0.37138968  0.92037337  0.88151704    -0.13100
C801        C  0.20888365  0.65780717  0.98399371    -0.11600
C802        C  0.20729723  0.62810664  0.00722101    -0.13100
C803        C  0.20200387  0.39283868  0.99907854    -0.11600
C804        C  0.20255827  0.36538854  0.97465675    -0.13100
C805        C  0.87448233  0.41845892  0.77968471    -0.11600
C806        C  0.89965821  0.44503020  0.78073143    -0.13100
C807        C  0.16388932  0.41399766  0.76291508    -0.11600
C808        C  0.13827217  0.44122260  0.76592286    -0.13100
C809        C  0.09114731  0.63442660  0.88837472    -0.11600
C810        C  0.11556245  0.66188283  0.88782211    -0.13100
C811        C  0.08310891  0.39915035  0.88299662    -0.11600
C812        C  0.10634728  0.36946102  0.88138557    -0.13100
C813        C  0.17198956  0.61727988  0.77475918    -0.11600
C814        C  0.14338922  0.59466036  0.77173681    -0.13100
C815        C  0.32731459  0.86337302  0.67642291    -0.11600
C816        C  0.32432958  0.88897885  0.64918296    -0.13100
C817        C  0.44497214  0.89966943  0.78073146    -0.11600
C818        C  0.41839664  0.87449771  0.77969758    -0.13100
C819        C  0.41841770  0.71669262  0.93753783    -0.11600
C820        C  0.44499113  0.71773025  0.96271129    -0.13100
C821        C  0.32734983  0.61339212  0.92647435    -0.11600
C822        C  0.32437544  0.58615277  0.95207999    -0.13100
C823        C  0.17197539  0.71168243  0.68035610    -0.11600
C824        C  0.14337455  0.70865430  0.65773690    -0.13100
C825        C  0.16383670  0.69982883  0.47705879    -0.11600
C826        C  0.13822467  0.70283139  0.50428781    -0.13100
C827        C  0.89961205  0.71763368  0.50814570    -0.11600
C828        C  0.87443571  0.71658207  0.48157494    -0.13100
C829        C  0.09112851  0.82528598  0.69750502    -0.11600
C830        C  0.11554520  0.82473948  0.72495878    -0.13100
C831        C  0.20726247  0.94415789  0.69116979    -0.11600
C832        C  0.20885345  0.92093010  0.72086792    -0.13100
C833        C  0.08305663  0.81990768  0.46223570    -0.11600
C834        C  0.10629279  0.81830316  0.43254369    -0.13100
C835        C  0.20249294  0.91159482  0.42845271    -0.11600
C836        C  0.20194354  0.93601833  0.45590143    -0.13100
C837        C  0.90460079  0.66313527  0.87081119    -0.11600
C838        C  0.93098412  0.63667746  0.87414300    -0.13100
C839        C  0.80760884  0.66315520  0.96779345    -0.11600
C840        C  0.81093873  0.63669287  0.99417332    -0.13100
C841        C  0.92027214  0.37147230  0.88153262    -0.11600
C842        C  0.94590975  0.39768082  0.87754914    -0.13100
C843        C  0.81841573  0.37147938  0.98337508    -0.11600
C844        C  0.81442606  0.39768505  0.00901378    -0.13100
C845        C  0.80762135  0.90466233  0.72625773    -0.11600
C846        C  0.81095775  0.93103844  0.69979237    -0.13100
C847        C  0.90460454  0.80768802  0.72626530    -0.11600
C848        C  0.93097903  0.81102609  0.69979850    -0.13100
C849        C  0.81837615  0.92026597  0.43457617    -0.11600
C850        C  0.81439313  0.94590061  0.46078666    -0.13100
C851        C  0.92022450  0.81842578  0.43458174    -0.11600
C852        C  0.94585908  0.81444908  0.46079096    -0.13100
C853        C  0.31554957  0.85513090  0.47313204    -0.11600
C854        C  0.31857072  0.88374257  0.49573983    -0.13100
C855        C  0.43254826  0.88377237  0.38173865    -0.11600
C856        C  0.40993496  0.85516399  0.37872095    -0.13100
C857        C  0.85514224  0.31559617  0.47307413    -0.11600
C858        C  0.88376134  0.31863253  0.49566878    -0.13100
C859        C  0.85511733  0.40997395  0.37871128    -0.11600
C860        C  0.88373533  0.43257214  0.38174359    -0.13100
C861        C  0.41000893  0.31563131  0.91821301    -0.11600
C862        C  0.43261923  0.31864244  0.94682345    -0.13100
C863        C  0.31561416  0.41004200  0.91824956    -0.11600
C864        C  0.31863485  0.43265372  0.94685917    -0.13100
C865        C  0.69785958  0.87375648  0.66539628    -0.11600
C866        C  0.69804027  0.90604379  0.64563942    -0.13100
C867        C  0.60218012  0.87369029  0.76102525    -0.11600
C868        C  0.58243010  0.90598075  0.76120583    -0.13100
C869        C  0.87369555  0.60225871  0.76103114    -0.11600
C870        C  0.90598458  0.58250772  0.76121318    -0.13100
C871        C  0.90597251  0.69809848  0.64561913    -0.11600
C872        C  0.87368554  0.69791367  0.66537545    -0.13100
C873        C  0.60217590  0.69789900  0.93682626    -0.11600
C874        C  0.58241923  0.69808462  0.96911306    -0.13100
C875        C  0.69784661  0.60225143  0.93687014    -0.11600
C876        C  0.69802720  0.58249212  0.96915498    -0.13100
loop_ 
_geom_bond_atom_site_label_1 
_geom_bond_atom_site_label_2 
_geom_bond_distance 
_geom_bond_site_symmetry_2 
_ccdc_geom_bond_type 
C1            N2   1.375       .  A
C1            N6   1.325       .  A
C1          C873   1.433       .  S
N2            C3   1.382       .  A
C3            N4   1.382       .  A
C3           C20   1.556       .  S
N4            C5   1.375       .  A
C5            N6   1.325       .  A
C5          C875   1.433       .  S
C7            N8   1.382       .  A
C7           N12   1.382       .  A
C7           C22   1.556       .  S
N8            C9   1.375       .  A
C9           N10   1.325       .  A
C9          C869   1.433       .  S
N10          C11   1.325       .  A
C11          N12   1.375       .  A
C11         C872   1.433       .  S
C13          N14   1.382       .  A
C13          N18   1.382       .  A
C13          C24   1.556       .  S
N14          C15   1.375       .  A
C15          N16   1.325       .  A
C15         C865   1.433       .  S
N16          C17   1.325       .  A
C17          N18   1.375       .  A
C17         C867   1.433       .  S
C19         C183   1.520       .  S
C19          C20   1.444       .  A
C19          C24   1.444       .  A
C20          C21   1.444       .  A
C21          C63   1.520       .  S
C21          C22   1.444       .  A
C22          C23   1.444       .  A
C23          C51   1.520       .  S
C23          C24   1.444       .  A
C25          N26   1.374       .  A
C25          N30   1.326       .  A
C25         C863   1.432       .  S
N26          C27   1.379       .  A
C27          N28   1.379       .  A
C27         C568   1.551       .  S
N28          C29   1.374       .  A
C29          N30   1.326       .  A
C29         C861   1.432       .  S
C31          N32   1.326       .  A
C31          N36   1.374       .  A
C31         C857   1.432       .  S
N32          C33   1.326       .  A
C33          N34   1.374       .  A
C33         C859   1.432       .  S
N34          C35   1.379       .  A
C35          N36   1.379       .  A
C35         C380   1.551       .  S
C37          N38   1.326       .  A
C37          N42   1.374       .  A
C37         C853   1.432       .  S
N38          C39   1.326       .  A
C39          N40   1.374       .  A
C39         C856   1.432       .  S
N40          C41   1.379       .  A
C41          N42   1.379       .  A
C41         C192   1.551       .  S
C43          N44   1.378       .  A
C43          N48   1.378       .  A
C43         C320   1.557       .  S
N44          C45   1.373       .  A
C45          N46   1.336       .  A
C45         C849   1.441       .  S
N46          C47   1.336       .  A
C47          N48   1.373       .  A
C47         C851   1.441       .  S
C49          N50   1.364       .  A
C49          N54   1.329       .  A
C49         C847   1.415       .  S
N50          C51   1.371       .  A
C51          N52   1.371       .  A
N52          C53   1.364       .  A
C53          N54   1.329       .  A
C53         C845   1.415       .  S
C55          N56   1.378       .  A
C55          N60   1.378       .  A
C55         C508   1.557       .  S
N56          C57   1.373       .  A
C57          N58   1.336       .  A
C57         C841   1.441       .  S
N58          C59   1.336       .  A
C59          N60   1.373       .  A
C59         C843   1.441       .  S
C61          N62   1.364       .  A
C61          N66   1.329       .  A
C61         C837   1.415       .  S
N62          C63   1.371       .  A
C63          N64   1.371       .  A
N64          C65   1.364       .  A
C65          N66   1.329       .  A
C65         C839   1.415       .  S
C67          N68   1.373       .  A
C67          N72   1.328       .  A
C67         C834   1.426       .  S
N68          C69   1.378       .  A
C69          N70   1.385       .  A
C69         C191   1.548       .  S
N70          C71   1.374       .  A
C71          N72   1.325       .  A
C71         C835   1.438       .  S
C73          N74   1.373       .  A
C73          N78   1.328       .  A
C73         C832   1.426       .  S
N74          C75   1.378       .  A
C75          N76   1.385       .  A
C75         C120   1.548       .  S
N76          C77   1.374       .  A
C77          N78   1.325       .  A
C77         C830   1.438       .  S
O79          C87   1.282       .  A
O79         Co99   1.982       .  S
O80          C88   1.293       .  A
O80        Co100   2.015       .  S
O81          C89   1.261       .  A
O81        Co101   1.950       .  S
O82          C90   1.276       .  A
O82        Co102   2.014   1_655  S
O83          C89   1.296       .  A
O83        Co100   2.026       .  S
O84          C90   1.289       .  A
O84         Co99   2.021       .  S
O85          C88   1.264       .  A
O85        Co102   1.955       .  S
O86          C87   1.263       .  A
O86        Co101   1.969   1_655  S
C87         C848   1.418       .  S
C88         C833   1.426       .  S
C89         C829   1.436       .  S
C90         C852   1.444       .  S
O91         C104   1.278       .  A
O91         Co99   2.015       .  S
O92         C105   1.254       .  A
O92        Co100   1.934       .  S
O93         C106   1.296       .  A
O93        Co101   2.024   1_655  S
O94         C107   1.282       .  A
O94        Co102   1.980       .  S
O95         C107   1.269       .  A
O95        Co100   1.989       .  S
O96         C106   1.263       .  A
O96         Co99   1.955       .  S
O97         C104   1.289       .  A
O97        Co102   2.020   1_655  S
O98         C105   1.293       .  A
O98        Co101   2.029       .  S
Co99        O103   1.951   1_655  S
Co100       O103   2.040       .  S
Co101       O103   2.035       .  S
Co102       O103   1.952       .  S
C104        C827   1.444       .  S
C105        C824   1.433       .  S
C106        C871   1.433       .  S
C107        C826   1.421       .  S
C108        N109   1.366       .  A
C108        N113   1.338       .  A
C108        C821   1.418       .  S
N109        C110   1.368       .  A
C110        N111   1.381       .  A
C110        C123   1.536       .  S
N111        C112   1.369       .  A
C112        N113   1.333       .  A
C112        C819   1.443       .  S
C114        N115   1.366       .  A
C114        N119   1.338       .  A
C114        C815   1.418       .  S
N115        C116   1.368       .  A
C116        N117   1.382       .  A
C116        C121   1.536       .  S
N117        C118   1.369       .  A
C118        N119   1.332       .  A
C118        C818   1.443       .  S
C120        C121   1.457       .  A
C120        C125   1.447       .  A
C121        C122   1.444       .  A
C122        C173   1.557       .  S
C122        C123   1.444       .  A
C123        C124   1.457       .  A
C124        C171   1.548       .  S
C124        C125   1.447       .  A
C125        C126   1.551       .  S
C126        N127   1.379       .  A
C126        N131   1.379       .  A
N127        C128   1.374       .  A
C128        N129   1.326       .  A
C128        C823   1.432       .  S
N129        C130   1.326       .  A
C130        N131   1.374       .  A
C130        C813   1.432       .  S
O132        C140   1.263       .  A
O132       Co152   1.955       .  S
O133        C141   1.269       .  A
O133       Co153   1.989       .  S
O134        C142   1.293       .  A
O134       Co154   2.029       .  S
O135        C143   1.289       .  A
O135       Co155   2.020   1_655  S
O136        C142   1.254       .  A
O136       Co153   1.934       .  S
O137        C143   1.278       .  A
O137       Co152   2.015       .  S
O138        C141   1.282       .  A
O138       Co155   1.980       .  S
O139        C140   1.296       .  A
O139       Co154   2.024   1_655  S
C140        C870   1.433       .  S
C141        C808   1.421       .  S
C142        C814   1.433       .  S
C143        C806   1.444       .  S
O144        C157   1.289       .  A
O144       Co152   2.021       .  S
O145        C158   1.296       .  A
O145       Co153   2.026       .  S
O146        C159   1.263       .  A
O146       Co154   1.969   1_655  S
O147        C160   1.264       .  A
O147       Co155   1.955       .  S
O148        C160   1.293       .  A
O148       Co153   2.015       .  S
O149        C159   1.282       .  A
O149       Co152   1.982       .  S
O150        C157   1.276       .  A
O150       Co155   2.014   1_655  S
O151        C158   1.261       .  A
O151       Co154   1.950       .  S
Co152       O156   1.951   1_655  S
Co153       O156   2.040       .  S
Co154       O156   2.035       .  S
Co155       O156   1.952       .  S
C157        C842   1.444       .  S
C158        C809   1.436       .  S
C159        C838   1.418       .  S
C160        C811   1.426       .  S
C161        N162   1.373       .  A
C161        N166   1.328       .  A
C161        C812   1.426       .  S
N162        C163   1.378       .  A
C163        N164   1.385       .  A
C163        C567   1.548       .  S
N164        C165   1.374       .  A
C165        N166   1.325       .  A
C165        C804   1.437       .  S
C167        N168   1.328       .  A
C167        N172   1.373       .  A
C167        C801   1.425       .  S
N168        C169   1.325       .  A
C169        N170   1.374       .  A
C169        C810   1.438       .  S
N170        C171   1.385       .  A
C171        N172   1.377       .  A
C173        N174   1.378       .  A
C173        N178   1.378       .  A
N174        C175   1.373       .  A
C175        N176   1.336       .  A
C175        C798   1.441       .  S
N176        C177   1.336       .  A
C177        N178   1.373       .  A
C177        C800   1.441       .  S
C179        N180   1.329       .  A
C179        N184   1.364       .  A
C179        C793   1.415       .  S
N180        C181   1.329       .  A
C181        N182   1.364       .  A
C181        C796   1.415       .  S
N182        C183   1.371       .  A
C183        N184   1.371       .  A
C185        N186   1.338       .  A
C185        N190   1.366       .  A
C185        C825   1.418       .  S
N186        C187   1.333       .  A
C187        N188   1.369       .  A
C187        C792   1.443       .  S
N188        C189   1.381       .  A
C189        N190   1.368       .  A
C189        C196   1.536       .  S
C191        C192   1.447       .  A
C191        C196   1.457       .  A
C192        C193   1.447       .  A
C193        C365   1.548       .  S
C193        C194   1.457       .  A
C194        C201   1.536       .  S
C194        C195   1.444       .  A
C195        C655   1.557       .  S
C195        C196   1.444       .  A
C197        N198   1.338       .  A
C197        N202   1.366       .  A
C197        C787   1.418       .  S
N198        C199   1.333       .  A
C199        N200   1.369       .  A
C199        C789   1.443       .  S
N200        C201   1.381       .  A
C201        N202   1.368       .  A
O203        C211   1.296       .  A
O203       Co223   2.026       .  S
O204        C212   1.289       .  A
O204       Co224   2.021       .  S
O205        C213   1.263       .  A
O205       Co225   1.969       .  S
O206        C214   1.264       .  A
O206       Co226   1.955       .  S
O207        C213   1.282       .  A
O207       Co224   1.982       .  S
O208        C214   1.293       .  A
O208       Co223   2.015       .  S
O209        C212   1.276       .  A
O209       Co226   2.014       .  S
O210        C211   1.261       .  A
O210       Co225   1.950       .  S
C211        C803   1.436   1_554  S
C212        C782   1.444       .  S
C213        C783   1.418       .  S
C214        C802   1.426       .  S
O215        C228   1.269       .  A
O215       Co223   1.989   1_556  S
O216        C229   1.263       .  A
O216       Co224   1.955       .  S
O217        C230   1.293   1_554  A
O217       Co225   2.029       .  S
O218        C231   1.289       .  A
O218       Co226   2.020       .  S
O219        C231   1.278       .  A
O219       Co224   2.015       .  S
O220        C230   1.254       .  A
O220       Co223   1.934   1_556  S
O221        C228   1.282   1_554  A
O221       Co226   1.980       .  S
O222        C229   1.296       .  A
O222       Co225   2.024       .  S
Co223       O227   2.040       .  S
Co224       O227   1.951       .  S
Co225       O227   2.035       .  S
Co226       O227   1.952       .  S
C228        C822   1.421       .  S
C229        C785   1.433       .  S
C230        C864   1.433       .  S
C231        C790   1.444       .  S
O232        C240   1.254       .  A
O232       Co252   1.934       .  S
O233        C241   1.278       .  A
O233       Co253   2.015       .  S
O234        C242   1.296       .  A
O234       Co254   2.024       .  S
O235        C243   1.282       .  A
O235       Co255   1.980   1_655  S
O236        C242   1.263       .  A
O236       Co253   1.955       .  S
O237        C243   1.269       .  A
O237       Co252   1.989       .  S
O238        C241   1.289       .  A
O238       Co255   2.020       .  S
O239        C240   1.293       .  A
O239       Co254   2.029   1_655  S
C240        C860   1.433       .  S
C241        C791   1.444       .  S
C242        C774   1.433       .  S
C243        C779   1.421       .  S
O244        C257   1.293       .  A
O244       Co252   2.015       .  S
O245        C258   1.282       .  A
O245       Co253   1.982       .  S
O246        C259   1.261       .  A
O246       Co254   1.950   1_655  S
O247        C260   1.276       .  A
O247       Co255   2.014       .  S
O248        C260   1.289       .  A
O248       Co253   2.021       .  S
O249        C259   1.296       .  A
O249       Co252   2.026       .  S
O250        C257   1.264       .  A
O250       Co255   1.955   1_655  S
O251        C258   1.263       .  A
O251       Co254   1.969       .  S
Co252       O256   2.040   1_655  S
Co253       O256   1.951       .  S
Co254       O256   2.035       .  S
Co255       O256   1.952       .  S
C257        C770   1.426       .  S
C258        C776   1.418       .  S
C259        C772   1.436       .  S
C260        C777   1.444       .  S
C261        N262   1.371       .  A
C261        N266   1.371       .  A
C261        C681   1.520       .  S
N262        C263   1.364       .  A
C263        N264   1.329       .  A
C263        C784   1.415       .  S
N264        C265   1.329       .  A
C265        N266   1.364       .  A
C265        C775   1.415       .  S
C267        N268   1.373       .  A
C267        N272   1.328       .  A
C267        C767   1.426       .  S
N268        C269   1.378       .  A
C269        N270   1.385       .  A
C269        C379   1.548       .  S
N270        C271   1.374       .  A
C271        N272   1.325       .  A
C271        C771   1.438       .  S
C273        N274   1.328       .  A
C273        N278   1.373       .  A
C273        C769   1.426       .  S
N274        C275   1.325       .  A
C275        N276   1.374       .  A
C275        C765   1.438       .  S
N276        C277   1.385       .  A
C277        N278   1.378       .  A
C277        C322   1.548       .  S
O279        C287   1.282       .  A
O279       Co299   1.982       .  S
O280        C288   1.293       .  A
O280       Co300   2.015       .  S
O281        C289   1.261       .  A
O281       Co301   1.950       .  S
O282        C290   1.276       .  A
O282       Co302   2.014       .  S
O283        C289   1.296       .  A
O283       Co300   2.026       .  S
O284        C290   1.289       .  A
O284       Co299   2.021       .  S
O285        C288   1.264       .  A
O285       Co302   1.955       .  S
O286        C287   1.263       .  A
O286       Co301   1.969       .  S
C287        C840   1.418   1_554  S
C288        C768   1.426       .  S
C289        C766   1.436       .  S
C290        C844   1.444       .  S
O291        C304   1.278       .  A
O291       Co299   2.015   1_556  S
O292        C305   1.254       .  A
O292       Co300   1.934       .  S
O293        C306   1.296       .  A
O293       Co301   2.024       .  S
O294        C307   1.282       .  A
O294       Co302   1.980       .  S
O295        C307   1.269       .  A
O295       Co300   1.989       .  S
O296        C306   1.263   1_556  A
O296       Co299   1.955   1_556  S
O297        C304   1.289   1_554  A
O297       Co302   2.020       .  S
O298        C305   1.293       .  A
O298       Co301   2.029       .  S
Co299       O303   1.951       .  S
Co300       O303   2.040       .  S
Co301       O303   2.035       .  S
Co302       O303   1.952       .  S
C304        C764   1.444       .  S
C305        C760   1.433       .  S
C306        C876   1.433   1_554  S
C307        C761   1.421       .  S
C308        N309   1.338       .  A
C308        N313   1.366       .  A
C308        C757   1.418       .  S
N309        C310   1.333       .  A
C310        N311   1.369       .  A
C310        C755   1.443       .  S
N311        C312   1.381       .  A
C312        N313   1.368       .  A
C312        C325   1.536       .  S
C314        N315   1.366       .  A
C314        N319   1.338       .  A
C314        C780   1.418       .  S
N315        C316   1.368       .  A
C316        N317   1.381       .  A
C316        C321   1.536       .  S
N317        C318   1.369       .  A
C318        N319   1.333       .  A
C318        C828   1.443       .  S
C320        C321   1.444       .  A
C320        C325   1.444       .  A
C321        C322   1.457       .  A
C322        C323   1.447       .  A
C323        C326   1.551       .  S
C323        C324   1.447       .  A
C324        C369   1.548       .  S
C324        C325   1.457       .  A
C326        N327   1.379       .  A
C326        N331   1.379       .  A
N327        C328   1.374       .  A
C328        N329   1.326       .  A
C328        C754   1.432       .  S
N329        C330   1.326       .  A
C330        N331   1.374       .  A
C330        C759   1.432       .  S
O332        C340   1.263   1_556  A
O332       Co352   1.955   1_556  S
O333        C341   1.269       .  A
O333       Co353   1.989       .  S
O334        C342   1.293       .  A
O334       Co354   2.029       .  S
O335        C343   1.289   1_554  A
O335       Co355   2.020       .  S
O336        C342   1.254       .  A
O336       Co353   1.934       .  S
O337        C343   1.278       .  A
O337       Co352   2.015   1_556  S
O338        C341   1.282       .  A
O338       Co355   1.980       .  S
O339        C340   1.296       .  A
O339       Co354   2.024       .  S
C340        C874   1.433   1_554  S
C341        C788   1.421       .  S
C342        C753   1.433       .  S
C343        C820   1.444       .  S
O344        C357   1.289       .  A
O344       Co352   2.021       .  S
O345        C358   1.296       .  A
O345       Co353   2.026       .  S
O346        C359   1.263       .  A
O346       Co354   1.969       .  S
O347        C360   1.264       .  A
O347       Co355   1.955       .  S
O348        C360   1.293       .  A
O348       Co353   2.015       .  S
O349        C359   1.282       .  A
O349       Co352   1.982       .  S
O350        C357   1.276       .  A
O350       Co355   2.014       .  S
O351        C358   1.261       .  A
O351       Co354   1.950       .  S
Co352       O356   1.951       .  S
Co353       O356   2.040       .  S
Co354       O356   2.035       .  S
Co355       O356   1.952       .  S
C357        C797   1.444       .  S
C358        C750   1.436       .  S
C359        C794   1.418   1_554  S
C360        C751   1.426       .  S
C361        N362   1.328       .  A
C361        N366   1.373       .  A
C361        C752   1.426       .  S
N362        C363   1.325       .  A
C363        N364   1.374       .  A
C363        C748   1.438       .  S
N364        C365   1.385       .  A
C365        N366   1.378       .  A
C367        N368   1.373       .  A
C367        N372   1.328       .  A
C367        C745   1.426       .  S
N368        C369   1.378       .  A
C369        N370   1.385       .  A
N370        C371   1.374       .  A
C371        N372   1.325       .  A
C371        C749   1.438       .  S
C373        N374   1.366       .  A
C373        N378   1.338       .  A
C373        C762   1.418       .  S
N374        C375   1.368       .  A
C375        N376   1.382       .  A
C375        C384   1.536       .  S
N376        C377   1.369       .  A
C377        N378   1.333       .  A
C377        C744   1.443       .  S
C379        C380   1.447       .  A
C379        C384   1.457       .  A
C380        C381   1.447       .  A
C381        C551   1.548       .  S
C381        C382   1.457       .  A
C382        C385   1.536       .  S
C382        C383   1.444       .  A
C383        C649   1.557       .  S
C383        C384   1.444       .  A
C385        N386   1.382       .  A
C385        N390   1.368       .  A
N386        C387   1.369       .  A
C387        N388   1.333       .  A
C387        C742   1.443       .  S
N388        C389   1.338       .  A
C389        N390   1.366       .  A
C389        C740   1.418       .  S
O391        C399   1.293       .  A
O391       Co411   2.029   1_565  S
O392        C400   1.289       .  A
O392       Co412   2.020       .  S
O393        C401   1.269       .  A
O393       Co413   1.989       .  S
O394        C402   1.263       .  A
O394       Co414   1.955       .  S
O395        C401   1.282       .  A
O395       Co412   1.980   1_565  S
O396        C402   1.296       .  A
O396       Co411   2.024       .  S
O397        C400   1.278       .  A
O397       Co414   2.015       .  S
O398        C399   1.254       .  A
O398       Co413   1.934       .  S
C399        C855   1.433       .  S
C400        C741   1.444       .  S
C401        C758   1.421       .  S
C402        C737   1.433       .  S
O403        C416   1.263       .  A
O403       Co411   1.969       .  S
O404        C417   1.264       .  A
O404       Co412   1.955   1_565  S
O405        C418   1.296       .  A
O405       Co413   2.026       .  S
O406        C419   1.289       .  A
O406       Co414   2.021       .  S
O407        C419   1.276       .  A
O407       Co412   2.014       .  S
O408        C418   1.261       .  A
O408       Co411   1.950   1_565  S
O409        C416   1.282       .  A
O409       Co414   1.982       .  S
O410        C417   1.293       .  A
O410       Co413   2.015       .  S
Co411       O415   2.035       .  S
Co412       O415   1.952       .  S
Co413       O415   2.040   1_565  S
Co414       O415   1.951       .  S
C416        C736   1.418       .  S
C417        C746   1.426       .  S
C418        C747   1.436       .  S
C419        C734   1.444       .  S
O420        C428   1.254       .  A
O420       Co440   1.934   1_556  S
O421        C429   1.278       .  A
O421       Co441   2.015       .  S
O422        C430   1.296       .  A
O422       Co442   2.024       .  S
O423        C431   1.282   1_554  A
O423       Co443   1.980       .  S
O424        C430   1.263       .  A
O424       Co441   1.955       .  S
O425        C431   1.269       .  A
O425       Co440   1.989   1_556  S
O426        C429   1.289       .  A
O426       Co443   2.020       .  S
O427        C428   1.293   1_554  A
O427       Co442   2.029       .  S
C428        C862   1.433       .  S
C429        C743   1.444       .  S
C430        C726   1.433       .  S
C431        C731   1.421       .  S
O432        C445   1.293       .  A
O432       Co440   2.015       .  S
O433        C446   1.282       .  A
O433       Co441   1.982       .  S
O434        C447   1.261       .  A
O434       Co442   1.950       .  S
O435        C448   1.276       .  A
O435       Co443   2.014       .  S
O436        C448   1.289       .  A
O436       Co441   2.021       .  S
O437        C447   1.296       .  A
O437       Co440   2.026       .  S
O438        C445   1.264       .  A
O438       Co443   1.955       .  S
O439        C446   1.263       .  A
O439       Co442   1.969       .  S
Co440       O444   2.040       .  S
Co441       O444   1.951       .  S
Co442       O444   2.035       .  S
Co443       O444   1.952       .  S
C445        C721   1.426       .  S
C446        C727   1.418       .  S
C447        C724   1.436   1_554  S
C448        C729   1.444       .  S
C449        N450   1.364       .  A
C449        N454   1.329       .  A
C449        C728   1.415       .  S
N450        C451   1.371       .  A
C451        N452   1.371       .  A
C451        C683   1.520       .  S
N452        C453   1.364       .  A
C453        N454   1.329       .  A
C453        C735   1.415       .  S
C455        N456   1.328       .  A
C455        N460   1.373       .  A
C455        C719   1.426       .  S
N456        C457   1.325       .  A
C457        N458   1.374       .  A
C457        C723   1.438       .  S
N458        C459   1.385       .  A
C459        N460   1.378       .  A
C459        C569   1.548       .  S
C461        N462   1.373       .  A
C461        N466   1.328       .  A
C461        C722   1.426       .  S
N462        C463   1.378       .  A
C463        N464   1.385       .  A
C463        C510   1.548       .  S
N464        C465   1.374       .  A
C465        N466   1.325       .  A
C465        C717   1.438       .  S
O467        C475   1.282       .  A
O467       Co487   1.982       .  S
O468        C476   1.293       .  A
O468       Co488   2.015       .  S
O469        C477   1.261       .  A
O469       Co489   1.950       .  S
O470        C478   1.276       .  A
O470       Co490   2.014   1_565  S
O471        C477   1.296       .  A
O471       Co488   2.026       .  S
O472        C478   1.289       .  A
O472       Co487   2.021       .  S
O473        C476   1.264       .  A
O473       Co490   1.955       .  S
O474        C475   1.263       .  A
O474       Co489   1.969   1_565  S
C475        C795   1.418       .  S
C476        C720   1.426       .  S
C477        C718   1.436       .  S
C478        C799   1.444       .  S
O479        C492   1.278       .  A
O479       Co487   2.015       .  S
O480        C493   1.254       .  A
O480       Co488   1.934       .  S
O481        C494   1.296       .  A
O481       Co489   2.024   1_565  S
O482        C495   1.282       .  A
O482       Co490   1.980       .  S
O483        C495   1.269       .  A
O483       Co488   1.989       .  S
O484        C494   1.263       .  A
O484       Co487   1.955       .  S
O485        C492   1.289       .  A
O485       Co490   2.020   1_565  S
O486        C493   1.293       .  A
O486       Co489   2.029       .  S
Co487       O491   1.951   1_565  S
Co488       O491   2.040       .  S
Co489       O491   2.035       .  S
Co490       O491   1.952       .  S
C492        C817   1.444       .  S
C493        C714   1.433       .  S
C494        C868   1.433       .  S
C495        C715   1.421       .  S
C496        N497   1.338       .  A
C496        N501   1.366       .  A
C496        C732   1.418       .  S
N497        C498   1.332       .  A
C498        N499   1.369       .  A
C498        C763   1.443       .  S
N499        C500   1.382       .  A
C500        N501   1.368       .  A
C500        C509   1.536       .  S
C502        N503   1.333       .  A
C502        N507   1.369       .  A
C502        C805   1.443       .  S
N503        C504   1.338       .  A
C504        N505   1.366       .  A
C504        C711   1.418       .  S
N505        C506   1.368       .  A
C506        N507   1.382       .  A
C506        C513   1.536       .  S
C508        C509   1.444       .  A
C508        C513   1.444       .  A
C509        C510   1.457       .  A
C510        C511   1.447       .  A
C511        C514   1.551       .  S
C511        C512   1.447       .  A
C512        C559   1.548       .  S
C512        C513   1.457       .  A
C514        N515   1.379       .  A
C514        N519   1.379       .  A
N515        C516   1.374       .  A
C516        N517   1.326       .  A
C516        C713   1.432       .  S
N517        C518   1.326       .  A
C518        N519   1.374       .  A
C518        C710   1.432       .  S
O520        C528   1.263       .  A
O520       Co540   1.955       .  S
O521        C529   1.269       .  A
O521       Co541   1.989       .  S
O522        C530   1.293       .  A
O522       Co542   2.029       .  S
O523        C531   1.289       .  A
O523       Co543   2.020   1_565  S
O524        C530   1.254       .  A
O524       Co541   1.934       .  S
O525        C531   1.278       .  A
O525       Co540   2.015       .  S
O526        C529   1.282       .  A
O526       Co543   1.980       .  S
O527        C528   1.296       .  A
O527       Co542   2.024   1_565  S
C528        C866   1.433       .  S
C529        C739   1.421       .  S
C530        C709   1.433       .  S
C531        C756   1.444       .  S
O532        C545   1.289       .  A
O532       Co540   2.021       .  S
O533        C546   1.296       .  A
O533       Co541   2.026       .  S
O534        C547   1.263       .  A
O534       Co542   1.969   1_565  S
O535        C548   1.264       .  A
O535       Co543   1.955       .  S
O536        C548   1.293       .  A
O536       Co541   2.015       .  S
O537        C547   1.282       .  A
O537       Co540   1.982       .  S
O538        C545   1.276       .  A
O538       Co543   2.014   1_565  S
O539        C546   1.261       .  A
O539       Co542   1.950       .  S
Co540       O544   1.951   1_565  S
Co541       O544   2.040       .  S
Co542       O544   2.035       .  S
Co543       O544   1.952       .  S
C545        C850   1.444       .  S
C546        C705   1.436       .  S
C547        C846   1.418       .  S
C548        C707   1.426       .  S
C549        N550   1.373       .  A
C549        N554   1.328       .  A
C549        C708   1.426       .  S
N550        C551   1.378       .  A
C551        N552   1.385       .  A
N552        C553   1.374       .  A
C553        N554   1.325       .  A
C553        C703   1.438       .  S
C555        N556   1.325       .  A
C555        N560   1.374       .  A
C555        C706   1.438       .  S
N556        C557   1.328       .  A
C557        N558   1.373       .  A
C557        C701   1.426       .  S
N558        C559   1.377       .  A
C559        N560   1.385       .  A
C561        N562   1.368       .  A
C561        N566   1.381       .  A
C561        C570   1.536       .  S
N562        C563   1.366       .  A
C563        N564   1.338       .  A
C563        C716   1.418       .  S
N564        C565   1.333       .  A
C565        N566   1.369       .  A
C565        C699   1.443       .  S
C567        C568   1.447       .  A
C567        C572   1.457       .  A
C568        C569   1.447       .  A
C569        C570   1.457       .  A
C570        C571   1.444       .  A
C571        C643   1.557       .  S
C571        C572   1.444       .  A
C572        C639   1.536       .  S
O573        C581   1.254       .  A
O573       Co593   1.934       .  S
O574        C582   1.278       .  A
O574       Co594   2.015       .  S
O575        C583   1.296       .  A
O575       Co595   2.024       .  S
O576        C584   1.282       .  A
O576       Co596   1.980   1_565  S
O577        C583   1.263       .  A
O577       Co594   1.955       .  S
O578        C584   1.269       .  A
O578       Co593   1.989       .  S
O579        C582   1.289       .  A
O579       Co596   2.020       .  S
O580        C581   1.293       .  A
O580       Co595   2.029   1_565  S
C581        C854   1.433       .  S
C582        C700   1.444       .  S
C583        C698   1.433       .  S
C584        C816   1.421       .  S
O585        C598   1.293       .  A
O585       Co593   2.015       .  S
O586        C599   1.282       .  A
O586       Co594   1.982       .  S
O587        C600   1.261       .  A
O587       Co595   1.950   1_565  S
O588        C601   1.276       .  A
O588       Co596   2.014       .  S
O589        C601   1.289       .  A
O589       Co594   2.021       .  S
O590        C600   1.296       .  A
O590       Co593   2.026       .  S
O591        C598   1.264       .  A
O591       Co596   1.955   1_565  S
O592        C599   1.263       .  A
O592       Co595   1.969       .  S
Co593       O597   2.040   1_565  S
Co594       O597   1.951       .  S
Co595       O597   2.035       .  S
Co596       O597   1.952       .  S
C598        C831   1.426       .  S
C599        C693   1.418       .  S
C600        C836   1.436       .  S
C601        C695   1.444       .  S
O602        C610   1.293       .  A
O602       Co622   2.029   1_655  S
O603        C611   1.289       .  A
O603       Co623   2.020       .  S
O604        C612   1.269       .  A
O604       Co624   1.989       .  S
O605        C613   1.263       .  A
O605       Co625   1.955       .  S
O606        C612   1.282       .  A
O606       Co623   1.980   1_655  S
O607        C613   1.296       .  A
O607       Co622   2.024       .  S
O608        C611   1.278       .  A
O608       Co625   2.015       .  S
O609        C610   1.254       .  A
O609       Co624   1.934       .  S
C610        C858   1.433       .  S
C611        C685   1.444       .  S
C612        C712   1.421       .  S
C613        C687   1.433       .  S
O614        C627   1.263       .  A
O614       Co622   1.969       .  S
O615        C628   1.264       .  A
O615       Co623   1.955   1_655  S
O616        C629   1.296       .  A
O616       Co624   2.026       .  S
O617        C630   1.289       .  A
O617       Co625   2.021       .  S
O618        C630   1.276       .  A
O618       Co623   2.014       .  S
O619        C629   1.261       .  A
O619       Co622   1.950   1_655  S
O620        C627   1.282       .  A
O620       Co625   1.982       .  S
O621        C628   1.293       .  A
O621       Co624   2.015       .  S
Co622       O626   2.035       .  S
Co623       O626   1.952       .  S
Co624       O626   2.040   1_655  S
Co625       O626   1.951       .  S
C627        C691   1.418       .  S
C628        C702   1.426       .  S
C629        C704   1.436       .  S
C630        C690   1.444       .  S
C631        N632   1.329       .  A
C631        N636   1.364       .  A
C631        C694   1.415       .  S
N632        C633   1.329       .  A
C633        N634   1.364       .  A
C633        C692   1.415       .  S
N634        C635   1.371       .  A
C635        N636   1.371       .  A
C635        C679   1.520       .  S
C637        N638   1.366       .  A
C637        N642   1.338       .  A
C637        C807   1.418       .  S
N638        C639   1.368       .  A
C639        N640   1.381       .  A
N640        C641   1.369       .  A
C641        N642   1.333       .  A
C641        C686   1.443       .  S
C643        N644   1.378       .  A
C643        N648   1.378       .  A
N644        C645   1.373       .  A
C645        N646   1.336       .  A
C645        C696   1.441       .  S
N646        C647   1.336       .  A
C647        N648   1.373       .  A
C647        C689   1.441       .  S
C649        N650   1.378       .  A
C649        N654   1.378       .  A
N650        C651   1.373       .  A
C651        N652   1.336       .  A
C651        C733   1.441       .  S
N652        C653   1.336       .  A
C653        N654   1.373       .  A
C653        C730   1.441       .  S
C655        N656   1.378       .  A
C655        N660   1.378       .  A
N656        C657   1.373       .  A
C657        N658   1.336       .  A
C657        C781   1.441       .  S
N658        C659   1.336       .  A
C659        N660   1.373       .  A
C659        C778   1.441       .  S
C661        N662   1.382       .  A
C661        N666   1.382       .  A
C661        C682   1.556       .  S
N662        C663   1.375       .  A
C663        N664   1.325       .  A
C663        C725   1.433       .  S
N664        C665   1.325       .  A
C665        N666   1.375       .  A
C665        C786   1.433       .  S
C667        N668   1.382       .  A
C667        N672   1.382       .  A
C667        C684   1.556       .  S
N668        C669   1.375       .  A
C669        N670   1.325       .  A
C669        C697   1.433       .  S
N670        C671   1.325       .  A
C671        N672   1.375       .  A
C671        C738   1.433       .  S
C673        N674   1.325       .  A
C673        N678   1.375       .  A
C673        C773   1.433       .  S
N674        C675   1.325       .  A
C675        N676   1.375       .  A
C675        C688   1.433       .  S
N676        C677   1.382       .  A
C677        N678   1.382       .  A
C677        C680   1.556       .  S
C679        C680   1.444       .  A
C679        C684   1.444       .  A
C680        C681   1.444       .  A
C681        C682   1.444       .  A
C682        C683   1.444       .  A
C683        C684   1.444       .  A
C685        C686   1.213       .  T
C687        C688   1.214       .  T
C689        C690   1.214       .  T
C691        C692   1.201       .  T
C693        C694   1.201       .  T
C695        C696   1.214       .  T
C697        C698   1.214       .  T
C699        C700   1.213       .  T
C701        C702   1.209       .  T
C703        C704   1.215       .  T
C705        C706   1.215       .  T
C707        C708   1.209       .  T
C709        C710   1.214       .  T
C711        C712   1.201       .  T
C713        C714   1.214       .  T
C715        C716   1.201       .  T
C717        C718   1.215       .  T
C719        C720   1.209       .  T
C721        C722   1.209   1_554  T
C723        C724   1.215       .  T
C725        C726   1.214       .  T
C727        C728   1.201       .  T
C729        C730   1.214       .  T
C731        C732   1.201       .  T
C733        C734   1.214       .  T
C735        C736   1.201       .  T
C737        C738   1.214       .  T
C739        C740   1.201       .  T
C741        C742   1.213       .  T
C743        C744   1.213       .  T
C745        C746   1.209       .  T
C747        C748   1.215       .  T
C749        C750   1.215       .  T
C751        C752   1.209       .  T
C753        C754   1.214       .  T
C755        C756   1.213       .  T
C757        C758   1.201       .  T
C759        C760   1.214       .  T
C761        C762   1.201       .  T
C763        C764   1.213       .  T
C765        C766   1.215       .  T
C767        C768   1.209       .  T
C769        C770   1.209       .  T
C771        C772   1.215       .  T
C773        C774   1.214       .  T
C775        C776   1.201       .  T
C777        C778   1.214       .  T
C779        C780   1.201       .  T
C781        C782   1.214       .  T
C783        C784   1.201       .  T
C785        C786   1.214       .  T
C787        C788   1.201       .  T
C789        C790   1.213       .  T
C791        C792   1.213       .  T
C793        C794   1.201       .  T
C795        C796   1.201       .  T
C797        C798   1.214   1_554  T
C799        C800   1.214       .  T
C801        C802   1.209   1_556  T
C803        C804   1.215       .  T
C805        C806   1.213       .  T
C807        C808   1.201       .  T
C809        C810   1.215       .  T
C811        C812   1.209       .  T
C813        C814   1.214       .  T
C815        C816   1.201       .  T
C817        C818   1.213       .  T
C819        C820   1.213       .  T
C821        C822   1.201       .  T
C823        C824   1.214       .  T
C825        C826   1.201       .  T
C827        C828   1.213       .  T
C829        C830   1.215       .  T
C831        C832   1.209       .  T
C833        C834   1.209       .  T
C835        C836   1.215       .  T
C837        C838   1.201       .  T
C839        C840   1.201       .  T
C841        C842   1.214       .  T
C843        C844   1.214   1_556  T
C845        C846   1.201       .  T
C847        C848   1.201       .  T
C849        C850   1.214       .  T
C851        C852   1.214       .  T
C853        C854   1.214       .  T
C855        C856   1.214       .  T
C857        C858   1.214       .  T
C859        C860   1.214       .  T
C861        C862   1.214       .  T
C863        C864   1.214       .  T
C865        C866   1.214       .  T
C867        C868   1.214       .  T
C869        C870   1.214       .  T
C871        C872   1.214       .  T
C873        C874   1.214       .  T
C875        C876   1.214       .  T
