geometry optimzed in LAMMPS
_audit_creation_date              2020-11-30 
_audit_creation_method            'lammps2cif' 
_symmetry_space_group_name_H-M    'P1' 
_symmetry_Int_Tables_number       1 
_symmetry_cell_setting            triclinic 
loop_ 
_symmetry_equiv_pos_as_xyz 
  x,y,z 
_cell_length_a                    27.6758654 
_cell_length_b                    35.173231277582474 
_cell_length_c                    25.820158326734393 
_cell_angle_alpha                 90.02639804152855 
_cell_angle_beta                  106.96331425369735 
_cell_angle_gamma                 113.09734834229833 
loop_ 
_atom_site_label 
_atom_site_type_symbol 
_atom_site_fract_x 
_atom_site_fract_y 
_atom_site_fract_z 
_atom_site_charge 
N1          N  0.11824719  0.28434851  0.01595241    -0.02000
C2          C  0.17006616  0.29756905  0.01264066     0.00500
C3          C  0.20719908  0.30264803  0.06403281    -0.22300
C4          C  0.17666417  0.28956767  0.09915641    -0.22500
C5          C  0.12168337  0.27726387  0.06825148     0.00400
H6          H  0.25039999  0.30835450  0.07341470     0.14200
H7          H  0.19244712  0.28537929  0.14133824     0.14300
N8          N  0.26185563  0.23108367  0.96957961    -0.02000
C9          C  0.20773598  0.22412407  0.94847672     0.00500
C10         C  0.17632215  0.18935845  0.96774251    -0.22300
C11         C  0.21264720  0.17732436  0.00527087    -0.22500
C12         C  0.26522652  0.20468646  0.00707082     0.00400
H13         H  0.13287523  0.17915733  0.96371358     0.14200
H14         H  0.20189223  0.15542934  0.03375328     0.14300
C15         C  0.02833042  0.19787962  0.13784600     0.87900
C16         C  0.32064479  0.18523397  0.08910807    -0.52300
C17         C  0.31464664  0.21420701  0.05570315     0.10800
C18         C  0.02002524  0.25478886  0.07571338     0.21800
C19         C  0.07940636  0.22065114  0.11992731    -0.53000
C20         C  0.07525882  0.25065169  0.08734965     0.10900
C21         C  0.02025762  0.23280532  0.16505689    -0.52600
C22         C  0.01600105  0.26285726  0.13251751     0.11500
H23         H  0.29180105  0.15263534  0.08024638     0.16000
H24         H  0.01683778  0.27956128  0.05017193     0.01800
H25         H  0.11582073  0.21377266  0.13234737     0.16300
H26         H  0.01984996  0.23384931  0.20686871     0.16100
C27         C  0.01811429  0.29960726  0.89062424     0.87900
C28         C  0.30398397  0.28477178  0.91505200    -0.52300
C29         C  0.30524547  0.25375929  0.94662122     0.10800
C30         C  0.01820402  0.23940548  0.94926421     0.21800
C31         C  0.07039609  0.31162228  0.94017736    -0.53000
C32         C  0.07036376  0.28005714  0.97097294     0.10900
C33         C  0.01431000  0.26099581  0.85922890    -0.52600
C34         C  0.01484691  0.22938921  0.88999752     0.11500
H35         H  0.27200021  0.29644099  0.90670958     0.16000
H36         H  0.01907180  0.21361583  0.97361700     0.01800
H37         H  0.10501676  0.34199183  0.94940215     0.16300
H38         H  0.01163696  0.25950277  0.81652529     0.16100
N39         N  0.00793132  0.39751615  0.27219560    -0.25900
N40         N  0.01409530  0.41347301  0.22697298    -0.33700
C41         C  0.01192428  0.38405821  0.19183255     0.02500
C42         C  0.00399787  0.34794858  0.21637055     0.08500
C43         C  0.00149744  0.35767942  0.26703039    -0.04600
H44         H  0.01668066  0.38897778  0.15194311     0.09200
H45         H  0.99684539  0.33755454  0.29856844     0.10400
Cu46       Cu  0.02649262  0.47486658  0.21613137     0.44200
Cu47       Cu  0.01142354  0.43039475  0.34069396     0.42000
Cu48       Cu  0.03391859  0.03742033  0.33303700     0.43900
N49         N  0.03518886  0.03641605  0.21638739    -0.33200
N50         N  0.03754217  0.05883673  0.25891686    -0.27500
C51         C  0.04021016  0.09631427  0.24526729    -0.03600
C52         C  0.03946082  0.09764849  0.19142543     0.08600
C53         C  0.03650719  0.05922491  0.17454090     0.02400
H54         H  0.04153083  0.12032833  0.27248366     0.10100
H55         H  0.03388722  0.04820832  0.13426155     0.09100
N56         N  0.02640775  0.00881975  0.40212311    -0.34700
N57         N  0.01824021  0.46936639  0.40500257    -0.26900
C58         C  0.01562947  0.46015238  0.45493788    -0.02100
C59         C  0.02227699  0.49553128  0.48478409     0.06500
C60         C  0.02895753  0.02578410  0.45005525     0.04600
H61         H  0.00936209  0.42995255  0.46840689     0.09700
H62         H  0.03546472  0.05780695  0.45895438     0.08500
N63         N  0.01795729  0.44076035  0.77138919    -0.25900
N64         N  0.01720524  0.46257224  0.81264135    -0.33700
C65         C  0.01773830  0.44071781  0.85541699     0.02500
C66         C  0.01880866  0.40341583  0.84032104     0.08500
C67         C  0.01891455  0.40452027  0.78671379    -0.04600
H68         H  0.01750267  0.45126687  0.89467720     0.09200
H69         H  0.01997078  0.38105185  0.76054665     0.10400
Cu70       Cu  0.01648944  0.02125447  0.80916404     0.44200
Cu71       Cu  0.01871749  0.46070458  0.69605289     0.42000
Cu72       Cu  0.02635733  0.06412127  0.68276002     0.43900
N73         N  0.01876965  0.07980308  0.79458024    -0.33200
N74         N  0.02286064  0.09531107  0.74863304    -0.27500
C75         C  0.02369443  0.13366809  0.75188780    -0.03600
C76         C  0.01988138  0.14282630  0.80214125     0.08600
C77         C  0.01686202  0.10797999  0.82835131     0.02400
H78         H  0.02671501  0.15344939  0.71984510     0.10100
H79         H  0.01369966  0.10330202  0.86883254     0.09100
N80         N  0.02489417  0.02614409  0.62057626    -0.34700
N81         N  0.02128825  0.48778141  0.62513876    -0.26900
C82         C  0.01980294  0.47092274  0.57762239    -0.02100
C83         C  0.02274045  0.00020369  0.54154767     0.06500
C84         C  0.02593570  0.03483385  0.57011364     0.04600
H85         H  0.01691387  0.43972942  0.57003439     0.09700
H86         H  0.02838401  0.06408100  0.55528344     0.08500
C87         C  0.01954641  0.18212979  0.82148008    -0.15000
C88         C  0.01411262  0.18938421  0.87018459    -0.30200
H89         H  0.36520124  0.20959565  0.79778439     0.14000
H90         H  0.01028572  0.16567466  0.89745224     0.14600
C91         C  0.01808857  0.33398958  0.85575443    -0.15000
C92         C  0.01981406  0.37014878  0.87495727    -0.30200
H93         H  0.01600003  0.32869835  0.81360693     0.14000
H94         H  0.02138425  0.37521848  0.91704408     0.14600
C95         C  0.01207128  0.30156830  0.14999738    -0.15000
C96         C  0.00254946  0.30796111  0.19671568    -0.30200
H97         H  0.01853270  0.32588750  0.12367338     0.14000
H98         H  0.99499884  0.28370465  0.22295054     0.14600
C99         C  0.03303755  0.16505793  0.17433802    -0.15000
C100        C  0.03834656  0.13120920  0.15720489    -0.30200
H101        H  0.37479930  0.17491776  0.21927199     0.14000
H102        H  0.03988599  0.12732233  0.11604616     0.14600
C103        C  0.19136891  0.25841921  0.94512912    -0.11800
C104        C  0.18023403  0.28299677  0.96642820    -0.13400
N105        N  0.11823916  0.78434405  0.01594945    -0.02000
C106        C  0.17005816  0.79756686  0.01263719     0.00500
C107        C  0.20719200  0.80264686  0.06402905    -0.22300
C108        C  0.17665776  0.78956539  0.09915320    -0.22500
C109        C  0.12167670  0.77725991  0.06824885     0.00400
H110        H  0.25039325  0.80835521  0.07341071     0.14200
H111        H  0.19244162  0.78537809  0.14133483     0.14300
N112        N  0.26185087  0.73108523  0.96957935    -0.02000
C113        C  0.20773099  0.72412458  0.94847372     0.00500
C114        C  0.17631646  0.68935837  0.96773785    -0.22300
C115        C  0.21264097  0.67732496  0.00526798    -0.22500
C116        C  0.26522085  0.70468808  0.00707054     0.00400
H117        H  0.13286840  0.67915598  0.96370635     0.14200
H118        H  0.20188478  0.65542905  0.03374878     0.14300
C119        C  0.02832761  0.69787804  0.13784856     0.87900
C120        C  0.32063663  0.68523442  0.08910823    -0.52300
C121        C  0.31464045  0.71420780  0.05570345     0.10800
C122        C  0.02002233  0.75478746  0.07571697     0.21800
C123        C  0.07940184  0.72064750  0.11992634    -0.53000
C124        C  0.07525389  0.75064805  0.08734907     0.10900
C125        C  0.02025923  0.73280535  0.16506166    -0.52600
C126        C  0.01600263  0.76285730  0.13252248     0.11500
H127        H  0.29179138  0.65263596  0.08024605     0.16000
H128        H  0.01683495  0.77955985  0.05017626     0.01800
H129        H  0.11581570  0.71376801  0.13234437     0.16300
H130        H  0.01985464  0.73385024  0.20687447     0.16100
C131        C  0.01810308  0.79960499  0.89062544     0.87900
C132        C  0.30397955  0.78477196  0.91505133    -0.52300
C133        C  0.30524136  0.75376028  0.94662153     0.10800
C134        C  0.01819198  0.73940315  0.94926573     0.21800
C135        C  0.07038788  0.81161797  0.94017467    -0.53000
C136        C  0.07035526  0.78005310  0.97097069     0.10900
C137        C  0.01429053  0.76099098  0.85922836    -0.52600
C138        C  0.01482637  0.72938400  0.88999699     0.11500
H139        H  0.27199498  0.79644047  0.90670738     0.16000
H140        H  0.01905902  0.71361321  0.97361804     0.01800
H141        H  0.10501034  0.84198671  0.94939718     0.16300
H142        H  0.01161276  0.75949680  0.81652384     0.16100
N143        N  0.00795569  0.89752488  0.27220355    -0.25900
N144        N  0.01411272  0.91347908  0.22697758    -0.33700
C145        C  0.01193692  0.88406239  0.19183678     0.02500
C146        C  0.00401454  0.84795449  0.21637827     0.08500
C147        C  0.00152165  0.85768821  0.26704034    -0.04600
H148        H  0.01668683  0.88897947  0.15194444     0.09200
H149        H  0.99687442  0.83756521  0.29858142     0.10400
Cu150      Cu  0.02650621  0.97487141  0.21613156     0.44200
Cu151      Cu  0.01145625  0.93040600  0.34070319     0.42000
Cu152      Cu  0.03388169  0.53741015  0.33302958     0.43900
N153        N  0.03517378  0.53641098  0.21638724    -0.33200
N154        N  0.03751926  0.55882969  0.25891424    -0.27500
C155        C  0.04018902  0.59630758  0.24526507    -0.03600
C156        C  0.03944926  0.59764443  0.19142611     0.08600
C157        C  0.03649892  0.55922169  0.17454280     0.02400
H158        H  0.04150442  0.62032028  0.27248018     0.10100
H159        H  0.03388561  0.54820692  0.13426535     0.09100
N160        N  0.02635634  0.50880495  0.40210946    -0.34700
N161        N  0.01828945  0.96938077  0.40501662    -0.26900
C162        C  0.01568844  0.96016922  0.45495507    -0.02100
C163        C  0.02234418  0.99555002  0.48480309     0.06500
C164        C  0.02889524  0.52576672  0.45003842     0.04600
H165        H  0.00942050  0.92996901  0.46842465     0.09700
H166        H  0.03539988  0.55778879  0.45893725     0.08500
N167        N  0.01799999  0.94077257  0.77140090    -0.25900
N168        N  0.01724024  0.96258310  0.81264952    -0.33700
C169        C  0.01775663  0.94072451  0.85542111     0.02500
C170        C  0.01882337  0.90342089  0.84032595     0.08500
C171        C  0.01894540  0.90452907  0.78672365    -0.04600
H172        H  0.01751272  0.95127200  0.89467804     0.09200
H173        H  0.02000519  0.88106090  0.76055881     0.10400
Cu174      Cu  0.01644335  0.52124013  0.80915582     0.44200
Cu175      Cu  0.01878510  0.96072410  0.69607210     0.42000
Cu176      Cu  0.02628589  0.56409901  0.68274249     0.43900
N177        N  0.01871476  0.57978619  0.79456924    -0.33200
N178        N  0.02279621  0.59529116  0.74861817    -0.27500
C179        C  0.02362917  0.63364788  0.75187220    -0.03600
C180        C  0.01982623  0.64280939  0.80212936     0.08600
C181        C  0.01681308  0.60796508  0.82834221     0.02400
H182        H  0.02664525  0.65342777  0.71982729     0.10100
H183        H  0.01365986  0.60329020  0.86882715     0.09100
N184        N  0.02481845  0.52612201  0.62055546    -0.34700
N185        N  0.02136366  0.98780337  0.62516024    -0.26900
C186        C  0.01987772  0.97094417  0.57764398    -0.02100
C187        C  0.02266610  0.50018274  0.54152669     0.06500
C188        C  0.02586060  0.53481247  0.57009312     0.04600
H189        H  0.01698574  0.93974983  0.57005556     0.09700
H190        H  0.02831132  0.56406031  0.55526433     0.08500
C191        C  0.01949811  0.68211500  0.82147031    -0.15000
C192        C  0.01408234  0.68937573  0.87018174    -0.30200
H193        H  0.36519735  0.70959717  0.79778500     0.14000
H194        H  0.01026313  0.66566848  0.89745369     0.14600
C195        C  0.01807947  0.83398778  0.85575530    -0.15000
C196        C  0.01981576  0.87015051  0.87495997    -0.30200
H197        H  0.01598727  0.82869516  0.81360669     0.14000
H198        H  0.02138764  0.87522138  0.91704717     0.14600
C199        C  0.01207692  0.80156988  0.15000266    -0.15000
C200        C  0.00256181  0.80796555  0.19672370    -0.30200
H201        H  0.01853508  0.82588743  0.12367617     0.14000
H202        H  0.99501432  0.78371079  0.22296079     0.14600
C203        C  0.03303416  0.66505620  0.17434003    -0.15000
C204        C  0.03833890  0.63120581  0.15720588    -0.30200
H205        H  0.37479033  0.67491573  0.21927054     0.14000
H206        H  0.03987738  0.62731789  0.11604691     0.14600
C207        C  0.19136314  0.75841918  0.94512566    -0.11800
C208        C  0.18022695  0.78299596  0.96642451    -0.13400
N209        N  0.45507092  0.28816509  0.01520843    -0.02000
C210        C  0.50615834  0.30119107  0.01008919     0.00500
C211        C  0.54467280  0.30693796  0.06078997    -0.22300
C212        C  0.51573717  0.29440135  0.09736200    -0.22500
C213        C  0.46026984  0.28175099  0.06795583     0.00400
H214        H  0.58772009  0.31271454  0.06878605     0.14200
H215        H  0.53286974  0.29076261  0.13950313     0.14300
N216        N  0.59133808  0.23040292  0.96472728    -0.02000
C217        C  0.53779298  0.22494210  0.94346173     0.00500
C218        C  0.50485122  0.19032545  0.96174493    -0.22300
C219        C  0.53974727  0.17690326  0.99895731    -0.22500
C220        C  0.59300104  0.20331266  0.00154693     0.00400
H221        H  0.46151374  0.18115948  0.95744375     0.14200
H222        H  0.52776829  0.15483094  0.02689036     0.14300
C223        C  0.37047640  0.20318336  0.14127728     0.87900
C224        C  0.64610402  0.18202677  0.08341670    -0.52300
C225        C  0.64160105  0.21168201  0.05064755     0.10800
C226        C  0.35947670  0.25888391  0.07796565     0.21800
C227        C  0.42058431  0.22599511  0.12195220    -0.53000
C228        C  0.41503735  0.25536576  0.08875242     0.10900
C229        C  0.36230804  0.23814897  0.16830003    -0.52600
C230        C  0.35661233  0.26756689  0.13512612     0.11500
H231        H  0.61656315  0.14962371  0.07368586     0.16000
H232        H  0.35512653  0.28313025  0.05189330     0.01800
H233        H  0.45734532  0.21954317  0.13382191     0.16300
H234        H  0.36285059  0.23968615  0.21039763     0.16100
C235        C  0.35172375  0.30127346  0.89100149     0.87900
C236        C  0.63599243  0.28442156  0.91192984    -0.52300
C237        C  0.63575645  0.25288947  0.94293112     0.10800
C238        C  0.35453363  0.24202157  0.95066561     0.21800
C239        C  0.40478308  0.31416804  0.93983814    -0.53000
C240        C  0.40614575  0.28311333  0.97117355     0.10900
C241        C  0.34817697  0.26263536  0.85986950    -0.52600
C242        C  0.35024592  0.23158549  0.89120803     0.11500
H243        H  0.60459931  0.29668912  0.90325991     0.16000
H244        H  0.35657215  0.21664460  0.97543164     0.01800
H245        H  0.43895561  0.34472300  0.94813529     0.16300
H246        H  0.34446399  0.26061771  0.81689963     0.16100
N247        N  0.34732239  0.40220350  0.27393163    -0.25900
N248        N  0.35457418  0.41840525  0.22913456    -0.33700
C249        C  0.35290701  0.38908063  0.19420270     0.02500
C250        C  0.34420190  0.35278801  0.21845518     0.08500
C251        C  0.34073566  0.36233244  0.26872222    -0.04600
H252        H  0.35878878  0.39423295  0.15477470     0.09200
H253        H  0.33545047  0.34207724  0.30004714     0.10400
Cu254      Cu  0.36825602  0.48014525  0.21896646     0.44200
Cu255      Cu  0.35013923  0.43489163  0.34223475     0.42000
Cu256      Cu  0.37610692  0.04267141  0.33638424     0.43900
N257        N  0.37824165  0.04205270  0.21995934    -0.33200
N258        N  0.38071585  0.06444154  0.26259715    -0.27500
C259        C  0.38384842  0.10207590  0.24918921    -0.03600
C260        C  0.38327900  0.10355122  0.19540541     0.08600
C261        C  0.37996021  0.06504749  0.17830962     0.02400
H262        H  0.38510210  0.12603777  0.27644001     0.10100
H263        H  0.37711815  0.05404578  0.13793381     0.09100
N264        N  0.36725222  0.01354191  0.40489230    -0.34700
N265        N  0.35770880  0.47379269  0.40704553    -0.26900
C266        C  0.35444471  0.46424293  0.45670557    -0.02100
C267        C  0.36208261  0.49970264  0.48714189     0.06500
C268        C  0.37003075  0.03035706  0.45303344     0.04600
H269        H  0.34704193  0.43375341  0.46958345     0.09700
H270        H  0.37750144  0.06254034  0.46248252     0.08500
N271        N  0.35162851  0.44244626  0.77163826    -0.25900
N272        N  0.35069843  0.46420088  0.81284122    -0.33700
C273        C  0.35050608  0.44210907  0.85538000     0.02500
C274        C  0.35125817  0.40470476  0.84018698     0.08500
C275        C  0.35195924  0.40600051  0.78676979    -0.04600
H276        H  0.35024737  0.45264728  0.89463537     0.09200
H277        H  0.35329192  0.38260876  0.76071266     0.10400
Cu278      Cu  0.35130312  0.02331477  0.80993034     0.44200
Cu279      Cu  0.35411108  0.46293860  0.69684436     0.42000
Cu280      Cu  0.36593954  0.06757200  0.68553841     0.43900
N281        N  0.35616511  0.08265031  0.79649054    -0.33200
N282        N  0.36219231  0.09874075  0.75132370    -0.27500
C283        C  0.36413133  0.13742360  0.75506214    -0.03600
C284        C  0.35892481  0.14615837  0.80478309     0.08600
C285        C  0.35402446  0.11074303  0.83020066     0.02400
H286        H  0.36850402  0.15761782  0.72357030     0.10100
H287        H  0.34921332  0.10556211  0.87002806     0.09100
N288        N  0.36404586  0.02962634  0.62298493    -0.34700
N289        N  0.35894674  0.49086700  0.62680438    -0.26900
C290        C  0.35751912  0.47420324  0.57918137    -0.02100
C291        C  0.36207071  0.00402755  0.54381324     0.06500
C292        C  0.36619167  0.03878354  0.57293069     0.04600
H293        H  0.35346083  0.44273904  0.57100436     0.09700
H294        H  0.36994985  0.06842907  0.55871895     0.08500
C295        C  0.35833102  0.18537800  0.82411894    -0.15000
C296        C  0.35028331  0.19181203  0.87170466    -0.30200
H297        H  0.69074938  0.20668287  0.79233362     0.14000
H298        H  0.34503458  0.16768281  0.89835632     0.14600
C299        C  0.35034966  0.33520510  0.85565428    -0.15000
C300        C  0.35226038  0.37144269  0.87484148    -0.30200
H301        H  0.34759087  0.32966552  0.81333666     0.14000
H302        H  0.35443475  0.37672388  0.91708962     0.14600
C303        C  0.35211845  0.30616653  0.15216104    -0.15000
C304        C  0.34328985  0.31288479  0.19917461    -0.30200
H305        H  0.35740012  0.33007381  0.12518217     0.14000
H306        H  0.33655652  0.28890264  0.22587808     0.14600
C307        C  0.37658438  0.17092618  0.17829511    -0.15000
C308        C  0.38189639  0.13706759  0.16116088    -0.30200
H309        H  0.69776183  0.16996549  0.21351636     0.14000
H310        H  0.38282778  0.13297748  0.11979803     0.14600
C311        C  0.52354248  0.26026437  0.94110262    -0.11800
C312        C  0.51445484  0.28574579  0.96318832    -0.13400
N313        N  0.45506754  0.78816684  0.01520846    -0.02000
C314        C  0.50615497  0.80119334  0.01008902     0.00500
C315        C  0.54466870  0.80693588  0.06078893    -0.22300
C316        C  0.51573277  0.79439573  0.09736016    -0.22500
C317        C  0.46026583  0.78174764  0.06795450     0.00400
H318        H  0.58771527  0.81271190  0.06878363     0.14200
H319        H  0.53286505  0.79075402  0.13950038     0.14300
N320        N  0.59133184  0.73040766  0.96472217    -0.02000
C321        C  0.53778840  0.72494965  0.94345042     0.00500
C322        C  0.50484012  0.69033048  0.96172461    -0.22300
C323        C  0.53973014  0.67690403  0.99893817    -0.22500
C324        C  0.59298670  0.70331291  0.00153703     0.00400
H325        H  0.46150233  0.68116538  0.95741805     0.14200
H326        H  0.52774449  0.65482865  0.02686571     0.14300
C327        C  0.37046980  0.70318205  0.14127637     0.87900
C328        C  0.64607554  0.68201937  0.08340985    -0.52300
C329        C  0.64158050  0.71167714  0.05064231     0.10800
C330        C  0.35947354  0.75888380  0.07796547     0.21800
C331        C  0.42057722  0.72599117  0.12194932    -0.53000
C332        C  0.41503221  0.75536265  0.08875025     0.10900
C333        C  0.36230636  0.73814970  0.16830035    -0.52600
C334        C  0.35661232  0.76756817  0.13512696     0.11500
H335        H  0.61653158  0.64961698  0.07367483     0.16000
H336        H  0.35512497  0.78313055  0.05189363     0.01800
H337        H  0.45733710  0.71953752  0.13381807     0.16300
H338        H  0.36285074  0.73968753  0.21039899     0.16100
C339        C  0.35171928  0.80127352  0.89100100     0.87900
C340        C  0.63599879  0.78442881  0.91193379    -0.52300
C341        C  0.63575648  0.75289515  0.94293408     0.10800
C342        C  0.35453028  0.74202300  0.95066709     0.21800
C343        C  0.40477870  0.81416950  0.93983766    -0.53000
C344        C  0.40614218  0.78311534  0.97117410     0.10900
C345        C  0.34817356  0.76263531  0.85987065    -0.52600
C346        C  0.35024352  0.73158622  0.89121017     0.11500
H347        H  0.60460611  0.79669690  0.90325903     0.16000
H348        H  0.35656916  0.71664632  0.97543377     0.01800
H349        H  0.43895126  0.84472522  0.94813352     0.16300
H350        H  0.34446140  0.76061755  0.81690104     0.16100
N351        N  0.34737758  0.90222098  0.27395069    -0.25900
N352        N  0.35462389  0.91842088  0.22915097    -0.33700
C353        C  0.35294108  0.88909229  0.19421381     0.02500
C354        C  0.34423181  0.85279927  0.21846602     0.08500
C355        C  0.34077901  0.86234750  0.26873803    -0.04600
H356        H  0.35881535  0.89424212  0.15478214     0.09200
H357        H  0.33549526  0.84209272  0.30006483     0.10400
Cu358      Cu  0.36831486  0.98016279  0.21898702     0.44200
Cu359      Cu  0.35021243  0.93491419  0.34225749     0.42000
Cu360      Cu  0.37604204  0.54265017  0.33636065     0.43900
N361        N  0.37819328  0.54203765  0.21994198    -0.33200
N362        N  0.38066671  0.56442560  0.26258016    -0.27500
C363        C  0.38381093  0.60206330  0.24917718    -0.03600
C364        C  0.38324992  0.60354180  0.19539598     0.08600
C365        C  0.37992379  0.56503638  0.17829664     0.02400
H366        H  0.38506582  0.62602503  0.27642904     0.10100
H367        H  0.37708512  0.55403652  0.13792117     0.09100
N368        N  0.36718625  0.51352250  0.40486928    -0.34700
N369        N  0.35777659  0.97381218  0.40706668    -0.26900
C370        C  0.35450152  0.96425805  0.45672190    -0.02100
C371        C  0.36213079  0.99971476  0.48715766     0.06500
C372        C  0.36997565  0.53034175  0.45301289     0.04600
H373        H  0.34709383  0.93376651  0.46959581     0.09700
H374        H  0.37745439  0.56252666  0.46246222     0.08500
N375        N  0.35158136  0.94242924  0.77161893    -0.25900
N376        N  0.35065471  0.96418581  0.81282206    -0.33700
C377        C  0.35047424  0.94209880  0.85536562     0.02500
C378        C  0.35123122  0.90469589  0.84017512     0.08500
C379        C  0.35192175  0.90598689  0.78675474    -0.04600
H380        H  0.35022259  0.95264002  0.89462256     0.09200
H381        H  0.35325621  0.88259545  0.76069913     0.10400
Cu382      Cu  0.35135037  0.52333120  0.80995161     0.44200
Cu383      Cu  0.35405953  0.96291760  0.69682315     0.42000
Cu384      Cu  0.36594750  0.56758033  0.68553938     0.43900
N385        N  0.35619989  0.58266317  0.79650480    -0.33200
N386        N  0.36221184  0.59874992  0.75133186    -0.27500
C387        C  0.36413958  0.63742947  0.75506690    -0.03600
C388        C  0.35894098  0.64616573  0.80479132     0.08600
C389        C  0.35405819  0.61075509  0.83021528     0.02400
H390        H  0.36849671  0.65761989  0.72356918     0.10100
H391        H  0.34925599  0.60557604  0.87004618     0.09100
N392        N  0.36404436  0.52963115  0.62298312    -0.34700
N393        N  0.35893088  0.99085772  0.62679787    -0.26900
C394        C  0.35751837  0.97419959  0.57917872    -0.02100
C395        C  0.36204403  0.50402295  0.54380457     0.06500
C396        C  0.36616453  0.53877998  0.57291969     0.04600
H397        H  0.35345140  0.94273351  0.57099642     0.09700
H398        H  0.36990383  0.56842027  0.55869983     0.08500
C399        C  0.35833627  0.68538180  0.82412356    -0.15000
C400        C  0.35028872  0.69181506  0.87170961    -0.30200
H401        H  0.69070039  0.70666651  0.79232484     0.14000
H402        H  0.34504732  0.66768746  0.89836390     0.14600
C403        C  0.35034211  0.83520291  0.85565093    -0.15000
C404        C  0.35224654  0.87143907  0.87483481    -0.30200
H405        H  0.34758255  0.82966192  0.81333368     0.14000
H406        H  0.35442232  0.87672210  0.91708216     0.14600
C407        C  0.35212506  0.80617032  0.15216326    -0.15000
C408        C  0.34330635  0.81289237  0.19918109    -0.30200
H409        H  0.35740578  0.83007672  0.12518335     0.14000
H410        H  0.33657437  0.78891156  0.22588600     0.14600
C411        C  0.37657444  0.67092363  0.17829296    -0.15000
C412        C  0.38187845  0.63706219  0.16115586    -0.30200
H413        H  0.69771500  0.66995103  0.21351180     0.14000
H414        H  0.38280880  0.63297209  0.11979249     0.14600
C415        C  0.52354074  0.76027335  0.94109590    -0.11800
C416        C  0.51445221  0.78575251  0.96318541    -0.13400
N417        N  0.78474987  0.28496947  0.01366782    -0.02000
C418        C  0.83635511  0.29784882  0.00988064     0.00500
C419        C  0.87374033  0.30276522  0.06105150    -0.22300
C420        C  0.84355972  0.28991862  0.09652134    -0.22500
C421        C  0.78851040  0.27791119  0.06602550     0.00400
H422        H  0.91680977  0.30821921  0.07001090     0.14200
H423        H  0.85956659  0.28568278  0.13863882     0.14300
N424        N  0.92471631  0.22910228  0.96597292    -0.02000
C425        C  0.87103861  0.22316716  0.94409453     0.00500
C426        C  0.83817040  0.18826199  0.96198141    -0.22300
C427        C  0.87314359  0.17512017  0.99955439    -0.22500
C428        C  0.92638542  0.20196757  0.00272684     0.00400
H429        H  0.79464219  0.17866145  0.95713805     0.14200
H430        H  0.86108610  0.15286154  0.02726018     0.14300
C431        C  0.69532541  0.19897385  0.13621105     0.87900
C432        C  0.97931949  0.18084072  0.08489533    -0.52300
C433        C  0.97476288  0.21047043  0.05209815     0.10800
C434        C  0.68713592  0.25593435  0.07413405     0.21800
C435        C  0.74627835  0.22152691  0.11802327    -0.53000
C436        C  0.74220169  0.25155706  0.08547266     0.10900
C437        C  0.68766637  0.23405504  0.16357705    -0.52600
C438        C  0.68344548  0.26412103  0.13106330     0.11500
H439        H  0.94997834  0.14838346  0.07505595     0.16000
H440        H  0.68398695  0.28072816  0.04861887     0.01800
H441        H  0.78254993  0.21446519  0.13022271     0.16300
H442        H  0.68745994  0.23518245  0.20545479     0.16100
C443        C  0.68443390  0.30055717  0.88885112     0.87900
C444        C  0.96950140  0.28330588  0.91346996    -0.52300
C445        C  0.96930345  0.25179134  0.94448417     0.10800
C446        C  0.68443301  0.24030149  0.94742067     0.21800
C447        C  0.73682889  0.31245238  0.93824043    -0.53000
C448        C  0.73674132  0.28085622  0.96899193     0.10900
C449        C  0.68028656  0.26186202  0.85733603    -0.52600
C450        C  0.68080629  0.23023779  0.88807586     0.11500
H451        H  0.93794569  0.29542268  0.90463706     0.16000
H452        H  0.68526469  0.21448836  0.97173941     0.01800
H453        H  0.77157840  0.34274767  0.94735754     0.16300
H454        H  0.67746544  0.26033970  0.81459346     0.16100
N455        N  0.67423538  0.39838441  0.27042838    -0.25900
N456        N  0.68030773  0.41434865  0.22518608    -0.33700
C457        C  0.67834314  0.38500545  0.19008713     0.02500
C458        C  0.67067359  0.34893694  0.21467738     0.08500
C459        C  0.66805169  0.35860474  0.26530709    -0.04600
H460        H  0.68309816  0.38995413  0.15020153     0.09200
H461        H  0.66356824  0.33849911  0.29688374     0.10400
Cu462      Cu  0.69256758  0.47571478  0.21435274     0.44200
Cu463      Cu  0.67780990  0.43126733  0.33899010     0.42000
Cu464      Cu  0.70032644  0.03838539  0.33131730     0.43900
N465        N  0.70141380  0.03729150  0.21460841    -0.33200
N466        N  0.70388166  0.05976060  0.25715497    -0.27500
C467        C  0.70665328  0.09725829  0.24350104    -0.03600
C468        C  0.70585772  0.09855168  0.18964176     0.08600
C469        C  0.70275744  0.06008293  0.17274803     0.02400
H470        H  0.70808425  0.12131620  0.27073092     0.10100
H471        H  0.70007994  0.04903170  0.13246222     0.09100
N472        N  0.69296233  0.00977509  0.40043697    -0.34700
N473        N  0.68481966  0.47032028  0.40334138    -0.26900
C474        C  0.68233603  0.46114452  0.45332559    -0.02100
C475        C  0.68899457  0.49653164  0.48316577     0.06500
C476        C  0.69558494  0.02675993  0.44838970     0.04600
H477        H  0.67611428  0.43095817  0.46682208     0.09700
H478        H  0.70205764  0.05877694  0.45726748     0.08500
N479        N  0.68489531  0.44194611  0.76990867    -0.25900
N480        N  0.68412032  0.46374667  0.81115662    -0.33700
C481        C  0.68451149  0.44183961  0.85388470     0.02500
C482        C  0.68551715  0.40451600  0.83875753     0.08500
C483        C  0.68573238  0.40566590  0.78518595    -0.04600
H484        H  0.68422434  0.45236625  0.89313210     0.09200
H485        H  0.68679056  0.38220219  0.75901293     0.10400
Cu486      Cu  0.68350926  0.02246559  0.80765919     0.44200
Cu487      Cu  0.68578216  0.46193949  0.69461489     0.42000
Cu488      Cu  0.69283745  0.06517731  0.68098277     0.43900
N489        N  0.68550627  0.08092520  0.79291307    -0.33200
N490        N  0.68937008  0.09636600  0.74687756    -0.27500
C491        C  0.68998305  0.13465799  0.75004904    -0.03600
C492        C  0.68623928  0.14383450  0.80032888     0.08600
C493        C  0.68352081  0.10907891  0.82665212     0.02400
H494        H  0.69278646  0.15437573  0.71792459     0.10100
H495        H  0.68050680  0.10444565  0.86718966     0.09100
N496        N  0.69158467  0.02721422  0.61891689    -0.34700
N497        N  0.68819437  0.48891293  0.62360145    -0.26900
C498        C  0.68676820  0.47203669  0.57612174    -0.02100
C499        C  0.68953342  0.00124855  0.53994897     0.06500
C500        C  0.69254973  0.03584860  0.56842004     0.04600
H501        H  0.68403603  0.44088070  0.56862070     0.09700
H502        H  0.69480534  0.06503356  0.55349491     0.08500
C503        C  0.68571413  0.18307592  0.81960848    -0.15000
C504        C  0.68006405  0.19024293  0.86822949    -0.30200
H505        H  0.02451503  0.20570230  0.79415665     0.14000
H506        H  0.67617020  0.16650216  0.89545315     0.14600
C507        C  0.68446331  0.33497875  0.85403531    -0.15000
C508        C  0.68641472  0.37119773  0.87333646    -0.30200
H509        H  0.68222469  0.32966598  0.81184255     0.14000
H510        H  0.68809349  0.37627945  0.91545820     0.14600
C511        C  0.67963698  0.30286036  0.14862829    -0.15000
C512        C  0.66952926  0.30904574  0.19507567    -0.30200
H513        H  0.68652570  0.32731755  0.12253944     0.14000
H514        H  0.66161290  0.28465357  0.22108000     0.14600
C515        C  0.69994846  0.16612662  0.17267643    -0.15000
C516        C  0.70485613  0.13212795  0.15542424    -0.30200
H517        H  0.03058947  0.16878715  0.21508956     0.14000
H518        H  0.70616105  0.12814255  0.11418998     0.14600
C519        C  0.85602849  0.25812944  0.94150808    -0.11800
C520        C  0.84584229  0.28306182  0.96333350    -0.13400
N521        N  0.78474562  0.78497090  0.01368939    -0.02000
C522        C  0.83635425  0.79785258  0.00991060     0.00500
C523        C  0.87373245  0.80276127  0.06108323    -0.22300
C524        C  0.84354401  0.78990723  0.09654527    -0.22500
C525        C  0.78849715  0.77790295  0.06604269     0.00400
H526        H  0.91680284  0.80821595  0.07004757     0.14200
H527        H  0.85954384  0.78566526  0.13866091     0.14300
N528        N  0.92471042  0.72910578  0.96598325    -0.02000
C529        C  0.87103424  0.72317549  0.94411104     0.00500
C530        C  0.83816476  0.68827096  0.96199816    -0.22300
C531        C  0.87313663  0.67512481  0.99956575    -0.22500
C532        C  0.92637865  0.70196920  0.00273476     0.00400
H533        H  0.79463843  0.67867390  0.95715923     0.14200
H534        H  0.86107906  0.65286615  0.02727175     0.14300
C535        C  0.69529171  0.69896265  0.13620906     0.87900
C536        C  0.97931378  0.68083983  0.08490010    -0.52300
C537        C  0.97475737  0.71046988  0.05210362     0.10800
C538        C  0.68711757  0.75592748  0.07413456     0.21800
C539        C  0.74625057  0.72151469  0.11802914    -0.53000
C540        C  0.74218171  0.75154713  0.08547992     0.10900
C541        C  0.68763250  0.73404467  0.16357314    -0.52600
C542        C  0.68342056  0.76411311  0.13106060     0.11500
H543        H  0.94997068  0.64838323  0.07506234     0.16000
H544        H  0.68397535  0.78072343  0.04862095     0.01800
H545        H  0.78252075  0.71445121  0.13023370     0.16300
H546        H  0.68742089  0.73517138  0.20544933     0.16100
C547        C  0.68444612  0.80056426  0.88886280     0.87900
C548        C  0.96949407  0.78330776  0.91347719    -0.52300
C549        C  0.96929585  0.75179301  0.94449146     0.10800
C550        C  0.68443312  0.74030586  0.94743074     0.21800
C551        C  0.73683584  0.81245713  0.93825753    -0.53000
C552        C  0.73674199  0.78085972  0.96900825     0.10900
C553        C  0.68030088  0.76186901  0.85734949    -0.52600
C554        C  0.68081274  0.73024280  0.88808806     0.11500
H555        H  0.93794116  0.79542706  0.90464821     0.16000
H556        H  0.68526006  0.71449177  0.97174883     0.01800
H557        H  0.77158724  0.84275188  0.94737860     0.16300
H558        H  0.67748772  0.76034901  0.81460940     0.16100
N559        N  0.67426512  0.89839900  0.27043106    -0.25900
N560        N  0.68033443  0.91435988  0.22518618    -0.33700
C561        C  0.67835441  0.88501095  0.19008467     0.02500
C562        C  0.67067736  0.84894239  0.21467629     0.08500
C563        C  0.66806752  0.85861607  0.26530903    -0.04600
H564        H  0.68310352  0.88995538  0.15019648     0.09200
H565        H  0.66358345  0.83851200  0.29688750     0.10400
Cu566      Cu  0.69260696  0.97572799  0.21435255     0.44200
Cu567      Cu  0.67786225  0.93128907  0.33899740     0.42000
Cu568      Cu  0.70026166  0.53836361  0.33130644     0.43900
N569        N  0.70137000  0.53727728  0.21460600    -0.33200
N570        N  0.70382931  0.55974398  0.25715000    -0.27500
C571        C  0.70660083  0.59724166  0.24349647    -0.03600
C572        C  0.70581445  0.59853774  0.18963984     0.08600
C573        C  0.70271953  0.56007037  0.17274758     0.02400
H574        H  0.70802563  0.62129782  0.27072497     0.10100
H575        H  0.70005014  0.54902115  0.13246388     0.09100
N576        N  0.69288519  0.50975004  0.40042064    -0.34700
N577        N  0.68489339  0.97034466  0.40335626    -0.26900
C578        C  0.68241769  0.96116976  0.45334275    -0.02100
C579        C  0.68908495  0.99655836  0.48318636     0.06500
C580        C  0.69549772  0.52673326  0.44836969     0.04600
H581        H  0.67619367  0.93098265  0.46683774     0.09700
H582        H  0.70196739  0.55874989  0.45724606     0.08500
N583        N  0.68494301  0.94195978  0.76991785    -0.25900
N584        N  0.68415153  0.96375693  0.81115856    -0.33700
C585        C  0.68452969  0.94184777  0.85388463     0.02500
C586        C  0.68554347  0.90452582  0.83876361     0.08500
C587        C  0.68577741  0.90567933  0.78519781    -0.04600
H588        H  0.68422788  0.95237171  0.89312581     0.09200
H589        H  0.68684761  0.88221797  0.75903099     0.10400
Cu590      Cu  0.68348080  0.52245635  0.80766351     0.44200
Cu591      Cu  0.68585562  0.96196031  0.69463122     0.42000
Cu592      Cu  0.69276361  0.56515399  0.68096986     0.43900
N593        N  0.68546849  0.58091324  0.79291438    -0.33200
N594        N  0.68931410  0.59634811  0.74687152    -0.27500
C595        C  0.68992572  0.63463962  0.75004166    -0.03600
C596        C  0.68620152  0.64382259  0.80032882     0.08600
C597        C  0.68349475  0.60907088  0.82665718     0.02400
H598        H  0.69271786  0.65435363  0.71791220     0.10100
H599        H  0.68049695  0.60444306  0.86720147     0.09100
N600        N  0.69149721  0.52718899  0.61889704    -0.34700
N601        N  0.68828164  0.98893810  0.62362163    -0.26900
C602        C  0.68685963  0.97206295  0.57614302    -0.02100
C603        C  0.68943968  0.50122162  0.53992711     0.06500
C604        C  0.69245824  0.53582238  0.56839897     0.04600
H605        H  0.68412529  0.94090651  0.56864117     0.09700
H606        H  0.69471637  0.56500821  0.55347486     0.08500
C607        C  0.68568520  0.68306721  0.81960989    -0.15000
C608        C  0.68006362  0.69024486  0.86824205    -0.30200
H609        H  0.02445828  0.70568460  0.79414242     0.14000
H610        H  0.67618537  0.66650976  0.89547361     0.14600
C611        C  0.68448293  0.83498701  0.85404633    -0.15000
C612        C  0.68643237  0.87120641  0.87334364    -0.30200
H613        H  0.68225214  0.82967501  0.81185592     0.14000
H614        H  0.68810246  0.87628745  0.91546231     0.14600
C615        C  0.67962091  0.80285607  0.14862524    -0.15000
C616        C  0.66951743  0.80904597  0.19507318    -0.30200
H617        H  0.68651584  0.82731332  0.12253667     0.14000
H618        H  0.66159627  0.78465458  0.22107818     0.14600
C619        C  0.69990672  0.66611314  0.17267325    -0.15000
C620        C  0.70481680  0.63211504  0.15542317    -0.30200
H621        H  0.03058820  0.66878635  0.21509192     0.14000
H622        H  0.70612712  0.62813081  0.11419050     0.14600
C623        C  0.85603111  0.75814097  0.94153274    -0.11800
C624        C  0.84584807  0.78307263  0.96336360    -0.13400
loop_ 
_geom_bond_atom_site_label_1 
_geom_bond_atom_site_label_2 
_geom_bond_distance 
_geom_bond_site_symmetry_2 
_ccdc_geom_bond_type 
N1            C5   1.356       .  A
N1            C2   1.352       .  A
N1           C32   1.440   1_554  S
C2            C3   1.382       .  A
C2          C104   1.440   1_554  S
C3            C4   1.375       .  A
C3            H6   1.082       .  S
C4            C5   1.383       .  A
C4            H7   1.082       .  S
C5           C20   1.482       .  S
N8           C12   1.351   1_556  A
N8            C9   1.355       .  A
N8           C29   1.447       .  S
C9           C10   1.385       .  A
C9          C103   1.440       .  S
C10          C11   1.376   1_556  A
C10          H13   1.083       .  S
C11          C12   1.381       .  A
C11          H14   1.082       .  S
C12          C17   1.482       .  S
C15          C21   1.536       .  S
C15          C19   1.532       .  S
C15          C99   1.512       .  S
C15         C432   1.532   1_455  S
C16         C223   1.532       .  S
C16          H23   1.086       .  S
C16          C17   1.364       .  D
C17         C226   1.547       .  S
C18          C22   1.537       .  S
C18          C20   1.535       .  S
C18         C433   1.547   1_455  S
C18          H24   1.109       .  S
C19          H25   1.086       .  S
C19          C20   1.369       .  D
C21          H26   1.084       .  S
C21          C22   1.370       .  D
C22          C95   1.488       .  S
C27          C33   1.533       .  S
C27          C31   1.533       .  S
C27          C91   1.508       .  S
C27         C444   1.531   1_455  S
C28         C235   1.532       .  S
C28          H35   1.083       .  S
C28          C29   1.367       .  D
C29         C238   1.549       .  S
C30          C34   1.538       .  S
C30          C32   1.533       .  S
C30         C445   1.550   1_455  S
C30          H36   1.108       .  S
C31          H37   1.086       .  S
C31          C32   1.366       .  D
C33          H38   1.083       .  S
C33          C34   1.369       .  D
C34          C88   1.488       .  S
N39          C43   1.343       .  A
N39          N40   1.323       .  A
N39         Cu47   2.070       .  S
N40          C41   1.348       .  A
N40         Cu46   2.082       .  S
C41          C42   1.388       .  A
C41          H44   1.081       .  S
C42          C43   1.380       .  A
C42          C96   1.477       .  S
C43          H45   1.082   1_455  S
Cu46        N153   2.082       .  S
Cu47         N57   2.070       .  S
Cu48         N50   2.072       .  S
Cu48         N56   2.072       .  S
N49          C53   1.347       .  A
N49          N50   1.323       .  A
N49        Cu150   2.082   1_545  S
N50          C51   1.344       .  A
C51          C52   1.385       .  A
C51          H54   1.081       .  S
C52          C53   1.384       .  A
C52         C100   1.479       .  S
C53          H55   1.082       .  S
N56          C60   1.345       .  A
N56         N161   1.321   1_545  A
N57          C58   1.345       .  A
N57         N160   1.321       .  A
C58          C59   1.383       .  A
C58          H61   1.082       .  S
C59         C164   1.383       .  A
C59         C187   1.471       .  S
C60         C163   1.383   1_545  A
C60          H62   1.082       .  S
N63          C67   1.343       .  A
N63          N64   1.322       .  A
N63         Cu71   2.071       .  S
N64          C65   1.346       .  A
N64        Cu174   2.074       .  S
C65          C66   1.382       .  A
C65          H68   1.082       .  S
C66          C67   1.386       .  A
C66          C92   1.477       .  S
C67          H69   1.081       .  S
Cu70         N73   2.073       .  S
Cu70        N168   2.074   1_545  S
Cu71         N81   2.071       .  S
Cu72         N74   2.070       .  S
Cu72         N80   2.069       .  S
N73          C77   1.346       .  A
N73          N74   1.322       .  A
N74          C75   1.342       .  A
C75          C76   1.380       .  A
C75          H78   1.082       .  S
C76          C77   1.386       .  A
C76          C87   1.474       .  S
C77          H79   1.081       .  S
N80          C84   1.344       .  A
N80         N185   1.321   1_545  A
N81          C82   1.345       .  A
N81         N184   1.321       .  A
C82         C187   1.384       .  A
C82          H85   1.082       .  S
C83          C84   1.383       .  A
C83         C186   1.384   1_545  A
C83         C163   1.471   1_545  S
C84          H86   1.082       .  S
C87         H505   1.082       .  S
C87          C88   1.345       .  D
C88          H90   1.085       .  S
H89         C295   1.083       .  S
C91          H93   1.085       .  S
C91          C92   1.343       .  D
C92          H94   1.087       .  S
C95          H97   1.085       .  S
C95          C96   1.344       .  D
C96          H98   1.083   1_455  S
C99         H517   1.085       .  S
C99         C100   1.345       .  D
C100        H102   1.087       .  S
H101        C307   1.085       .  S
C103        C104   1.205       .  T
N105        C109   1.356       .  A
N105        C106   1.352       .  A
N105        C136   1.440   1_554  S
C106        C107   1.382       .  A
C106        C208   1.440   1_554  S
C107        C108   1.375       .  A
C107        H110   1.082       .  S
C108        C109   1.383       .  A
C108        H111   1.082       .  S
C109        C124   1.482       .  S
N112        C116   1.351   1_556  A
N112        C113   1.355       .  A
N112        C133   1.447       .  S
C113        C114   1.385       .  A
C113        C207   1.440       .  S
C114        C115   1.376   1_556  A
C114        H117   1.083       .  S
C115        C116   1.381       .  A
C115        H118   1.082       .  S
C116        C121   1.482       .  S
C119        C536   1.532   1_455  S
C119        C125   1.536       .  S
C119        C123   1.532       .  S
C119        C203   1.512       .  S
C120        C327   1.532       .  S
C120        H127   1.086       .  S
C120        C121   1.364       .  D
C121        C330   1.547       .  S
C122        C537   1.547   1_455  S
C122        C126   1.537       .  S
C122        C124   1.535       .  S
C122        H128   1.109       .  S
C123        H129   1.086       .  S
C123        C124   1.369       .  D
C125        H130   1.084       .  S
C125        C126   1.370       .  D
C126        C199   1.488       .  S
C131        C548   1.531   1_455  S
C131        C137   1.533       .  S
C131        C135   1.533       .  S
C131        C195   1.508       .  S
C132        C339   1.532       .  S
C132        H139   1.083       .  S
C132        C133   1.367       .  D
C133        C342   1.549       .  S
C134        C549   1.550   1_455  S
C134        C138   1.538       .  S
C134        C136   1.533       .  S
C134        H140   1.108       .  S
C135        H141   1.086       .  S
C135        C136   1.366       .  D
C137        H142   1.083       .  S
C137        C138   1.369       .  D
C138        C192   1.488       .  S
N143        C147   1.343       .  A
N143        N144   1.323       .  A
N143       Cu151   2.070       .  S
N144        C145   1.348       .  A
N144       Cu150   2.082       .  S
C145        C146   1.388       .  A
C145        H148   1.081       .  S
C146        C147   1.380       .  A
C146        C200   1.477       .  S
C147        H149   1.082   1_455  S
Cu151       N161   2.070       .  S
Cu152       N154   2.072       .  S
Cu152       N160   2.072       .  S
N153        C157   1.347       .  A
N153        N154   1.323       .  A
N154        C155   1.344       .  A
C155        C156   1.385       .  A
C155        H158   1.081       .  S
C156        C157   1.384       .  A
C156        C204   1.479       .  S
C157        H159   1.082       .  S
N160        C164   1.345       .  A
N161        C162   1.345       .  A
C162        C163   1.383       .  A
C162        H165   1.082       .  S
C164        H166   1.082       .  S
N167        C171   1.343       .  A
N167        N168   1.322       .  A
N167       Cu175   2.071       .  S
N168        C169   1.346       .  A
C169        C170   1.382       .  A
C169        H172   1.082       .  S
C170        C171   1.386       .  A
C170        C196   1.477       .  S
C171        H173   1.081       .  S
Cu174       N177   2.073       .  S
Cu175       N185   2.071       .  S
Cu176       N178   2.070       .  S
Cu176       N184   2.069       .  S
N177        C181   1.346       .  A
N177        N178   1.322       .  A
N178        C179   1.342       .  A
C179        C180   1.380       .  A
C179        H182   1.082       .  S
C180        C181   1.386       .  A
C180        C191   1.474       .  S
C181        H183   1.081       .  S
N184        C188   1.344       .  A
N185        C186   1.345       .  A
C186        H189   1.082       .  S
C187        C188   1.383       .  A
C188        H190   1.082       .  S
C191        H609   1.082       .  S
C191        C192   1.345       .  D
C192        H194   1.085       .  S
H193        C399   1.083       .  S
C195        H197   1.085       .  S
C195        C196   1.343       .  D
C196        H198   1.087       .  S
C199        H201   1.085       .  S
C199        C200   1.344       .  D
C200        H202   1.083   1_455  S
C203        H621   1.085       .  S
C203        C204   1.345       .  D
C204        H206   1.087       .  S
H205        C411   1.085       .  S
C207        C208   1.205       .  T
N209        C213   1.356       .  A
N209        C210   1.352       .  A
N209        C240   1.439   1_554  S
C210        C211   1.381       .  A
C210        C312   1.440   1_554  S
C211        C212   1.376       .  A
C211        H214   1.082       .  S
C212        C213   1.384       .  A
C212        H215   1.083       .  S
C213        C228   1.483       .  S
N216        C220   1.350   1_556  A
N216        C217   1.355       .  A
N216        C237   1.447       .  S
C217        C218   1.385       .  A
C217        C311   1.440       .  S
C218        C219   1.377       .  A
C218        H221   1.083       .  S
C219        C220   1.381   1_556  A
C219        H222   1.082   1_556  S
C220        C225   1.482       .  S
C223        C229   1.536       .  S
C223        C227   1.532       .  S
C223        C307   1.512       .  S
C224        C431   1.532       .  S
C224        H231   1.086       .  S
C224        C225   1.364       .  D
C225        C434   1.547       .  S
C226        C230   1.538       .  S
C226        C228   1.535       .  S
C226        H232   1.109       .  S
C227        H233   1.086       .  S
C227        C228   1.369       .  D
C229        H234   1.084       .  S
C229        C230   1.371       .  D
C230        C303   1.489       .  S
C235        C241   1.533       .  S
C235        C239   1.533       .  S
C235        C299   1.508       .  S
C236        C443   1.531       .  S
C236        H243   1.083       .  S
C236        C237   1.367       .  D
C237        C446   1.550       .  S
C238        C242   1.538       .  S
C238        C240   1.532       .  S
C238        H244   1.108       .  S
C239        H245   1.086       .  S
C239        C240   1.365       .  D
C241        H246   1.084       .  S
C241        C242   1.369       .  D
C242        C296   1.487       .  S
N247        C251   1.343       .  A
N247        N248   1.323       .  A
N247       Cu255   2.070       .  S
N248        C249   1.348       .  A
N248       Cu254   2.084       .  S
C249        C250   1.388       .  A
C249        H252   1.081       .  S
C250        C251   1.380       .  A
C250        C304   1.477       .  S
C251        H253   1.082       .  S
Cu254       N361   2.084       .  S
Cu255       N265   2.070       .  S
Cu256       N258   2.073       .  S
Cu256       N264   2.073       .  S
N257        C261   1.347       .  A
N257        N258   1.323       .  A
N257       Cu358   2.084   1_545  S
N258        C259   1.344       .  A
C259        C260   1.385       .  A
C259        H262   1.081       .  S
C260        C261   1.384       .  A
C260        C308   1.480       .  S
C261        H263   1.082       .  S
N264        C268   1.345       .  A
N264        N369   1.321   1_545  A
N265        C266   1.345       .  A
N265        N368   1.321       .  A
C266        C267   1.383       .  A
C266        H269   1.082       .  S
C267        C372   1.384       .  A
C267        C395   1.471       .  S
C268        C371   1.384   1_545  A
C268        H270   1.082       .  S
N271        C275   1.343       .  A
N271        N272   1.322       .  A
N271       Cu279   2.072       .  S
N272        C273   1.346       .  A
N272       Cu382   2.074       .  S
C273        C274   1.382       .  A
C273        H276   1.082       .  S
C274        C275   1.386       .  A
C274        C300   1.477       .  S
C275        H277   1.081       .  S
Cu278       N376   2.074   1_545  S
Cu278       N281   2.074       .  S
Cu279       N289   2.072       .  S
Cu280       N282   2.071       .  S
Cu280       N288   2.070       .  S
N281        C285   1.346       .  A
N281        N282   1.322       .  A
N282        C283   1.343       .  A
C283        C284   1.380       .  A
C283        H286   1.082       .  S
C284        C285   1.386       .  A
C284        C295   1.475       .  S
C285        H287   1.081       .  S
N288        C292   1.345       .  A
N288        N393   1.321   1_545  A
N289        C290   1.345       .  A
N289        N392   1.321       .  A
C290        C395   1.384       .  A
C290        H293   1.082       .  S
C291        C394   1.384   1_545  A
C291        C292   1.383       .  A
C291        C371   1.471   1_545  S
C292        H294   1.082       .  S
C295        C296   1.345       .  D
C296        H298   1.085       .  S
H297        C503   1.083       .  S
C299        H301   1.085       .  S
C299        C300   1.343       .  D
C300        H302   1.087       .  S
C303        H305   1.085       .  S
C303        C304   1.344       .  D
C304        H306   1.083       .  S
C307        C308   1.346       .  D
C308        H310   1.087       .  S
H309        C515   1.085       .  S
C311        C312   1.205       .  T
N313        C317   1.356       .  A
N313        C314   1.352       .  A
N313        C344   1.439   1_554  S
C314        C315   1.381       .  A
C314        C416   1.440   1_554  S
C315        C316   1.376       .  A
C315        H318   1.082       .  S
C316        C317   1.384       .  A
C316        H319   1.083       .  S
C317        C332   1.483       .  S
N320        C324   1.350   1_556  A
N320        C321   1.355       .  A
N320        C341   1.447       .  S
C321        C322   1.385       .  A
C321        C415   1.440       .  S
C322        C323   1.377       .  A
C322        H325   1.083       .  S
C323        C324   1.381   1_556  A
C323        H326   1.082   1_556  S
C324        C329   1.482       .  S
C327        C333   1.536       .  S
C327        C331   1.532       .  S
C327        C411   1.512       .  S
C328        C535   1.532       .  S
C328        H335   1.086       .  S
C328        C329   1.364       .  D
C329        C538   1.547       .  S
C330        C334   1.538       .  S
C330        C332   1.535       .  S
C330        H336   1.108       .  S
C331        H337   1.086       .  S
C331        C332   1.369       .  D
C333        H338   1.084       .  S
C333        C334   1.371       .  D
C334        C407   1.489       .  S
C339        C345   1.533       .  S
C339        C343   1.532       .  S
C339        C403   1.508       .  S
C340        C547   1.531       .  S
C340        H347   1.083       .  S
C340        C341   1.367       .  D
C341        C550   1.550       .  S
C342        C346   1.538       .  S
C342        C344   1.532       .  S
C342        H348   1.108       .  S
C343        H349   1.086       .  S
C343        C344   1.365       .  D
C345        H350   1.084       .  S
C345        C346   1.369       .  D
C346        C400   1.487       .  S
N351        C355   1.343       .  A
N351        N352   1.323       .  A
N351       Cu359   2.070       .  S
N352        C353   1.348       .  A
N352       Cu358   2.084       .  S
C353        C354   1.388       .  A
C353        H356   1.081       .  S
C354        C355   1.380       .  A
C354        C408   1.477       .  S
C355        H357   1.082       .  S
Cu359       N369   2.070       .  S
Cu360       N362   2.073       .  S
Cu360       N368   2.073       .  S
N361        C365   1.347       .  A
N361        N362   1.323       .  A
N362        C363   1.344       .  A
C363        C364   1.385       .  A
C363        H366   1.081       .  S
C364        C365   1.384       .  A
C364        C412   1.480       .  S
C365        H367   1.082       .  S
N368        C372   1.345       .  A
N369        C370   1.345       .  A
C370        C371   1.383       .  A
C370        H373   1.082       .  S
C372        H374   1.082       .  S
N375        C379   1.343       .  A
N375        N376   1.322       .  A
N375       Cu383   2.072       .  S
N376        C377   1.346       .  A
C377        C378   1.382       .  A
C377        H380   1.082       .  S
C378        C379   1.386       .  A
C378        C404   1.477       .  S
C379        H381   1.081       .  S
Cu382       N385   2.074       .  S
Cu383       N393   2.072       .  S
Cu384       N386   2.071       .  S
Cu384       N392   2.070       .  S
N385        C389   1.346       .  A
N385        N386   1.322       .  A
N386        C387   1.343       .  A
C387        C388   1.380       .  A
C387        H390   1.082       .  S
C388        C389   1.386       .  A
C388        C399   1.475       .  S
C389        H391   1.081       .  S
N392        C396   1.345       .  A
N393        C394   1.345       .  A
C394        H397   1.082       .  S
C395        C396   1.383       .  A
C396        H398   1.082       .  S
C399        C400   1.345       .  D
C400        H402   1.085       .  S
H401        C607   1.082       .  S
C403        H405   1.085       .  S
C403        C404   1.343       .  D
C404        H406   1.087       .  S
C407        H409   1.085       .  S
C407        C408   1.344       .  D
C408        H410   1.083       .  S
C411        C412   1.346       .  D
C412        H414   1.087       .  S
H413        C619   1.085       .  S
C415        C416   1.205       .  T
N417        C421   1.356       .  A
N417        C418   1.352       .  A
N417        C448   1.439   1_554  S
C418        C419   1.381       .  A
C418        C520   1.440   1_554  S
C419        C420   1.375       .  A
C419        H422   1.082       .  S
C420        C421   1.384       .  A
C420        H423   1.083       .  S
C421        C436   1.483       .  S
N424        C428   1.350   1_556  A
N424        C425   1.355       .  A
N424        C445   1.447       .  S
C425        C426   1.385       .  A
C425        C519   1.440       .  S
C426        C427   1.377       .  A
C426        H429   1.083       .  S
C427        C428   1.381   1_556  A
C427        H430   1.082   1_556  S
C428        C433   1.482       .  S
C431        C437   1.536       .  S
C431        C435   1.532       .  S
C431        C515   1.511       .  S
C432        H439   1.086       .  S
C432        C433   1.364       .  D
C434        C438   1.538       .  S
C434        C436   1.535       .  S
C434        H440   1.109       .  S
C435        H441   1.086       .  S
C435        C436   1.369       .  D
C437        H442   1.084       .  S
C437        C438   1.370       .  D
C438        C511   1.488       .  S
C443        C449   1.533       .  S
C443        C447   1.532       .  S
C443        C507   1.508       .  S
C444        H451   1.083       .  S
C444        C445   1.367       .  D
C446        C450   1.538       .  S
C446        C448   1.533       .  S
C446        H452   1.108       .  S
C447        H453   1.086       .  S
C447        C448   1.366       .  D
C449        H454   1.083       .  S
C449        C450   1.369       .  D
C450        C504   1.487       .  S
N455        C459   1.343       .  A
N455        N456   1.323       .  A
N455       Cu463   2.071       .  S
N456        C457   1.348       .  A
N456       Cu462   2.082       .  S
C457        C458   1.388       .  A
C457        H460   1.081       .  S
C458        C459   1.380       .  A
C458        C512   1.477       .  S
C459        H461   1.082       .  S
Cu462       N569   2.082       .  S
Cu463       N473   2.070       .  S
Cu464       N466   2.072       .  S
Cu464       N472   2.072       .  S
N465        C469   1.347       .  A
N465        N466   1.323       .  A
N465       Cu566   2.082   1_545  S
N466        C467   1.344       .  A
C467        C468   1.385       .  A
C467        H470   1.081       .  S
C468        C469   1.384       .  A
C468        C516   1.479       .  S
C469        H471   1.082       .  S
N472        C476   1.345       .  A
N472        N577   1.321   1_545  A
N473        C474   1.345       .  A
N473        N576   1.321       .  A
C474        C475   1.383       .  A
C474        H477   1.082       .  S
C475        C580   1.383       .  A
C475        C603   1.471       .  S
C476        C579   1.383   1_545  A
C476        H478   1.082       .  S
N479        C483   1.343       .  A
N479        N480   1.322       .  A
N479       Cu487   2.071       .  S
N480        C481   1.346       .  A
N480       Cu590   2.074       .  S
C481        C482   1.382       .  A
C481        H484   1.082       .  S
C482        C483   1.386       .  A
C482        C508   1.477       .  S
C483        H485   1.081       .  S
Cu486       N584   2.074   1_545  S
Cu486       N489   2.074       .  S
Cu487       N497   2.071       .  S
Cu488       N490   2.070       .  S
Cu488       N496   2.069       .  S
N489        C493   1.346       .  A
N489        N490   1.322       .  A
N490        C491   1.342       .  A
C491        C492   1.380       .  A
C491        H494   1.082       .  S
C492        C493   1.386       .  A
C492        C503   1.474       .  S
C493        H495   1.081       .  S
N496        C500   1.344       .  A
N496        N601   1.321   1_545  A
N497        C498   1.345       .  A
N497        N600   1.321       .  A
C498        C603   1.384       .  A
C498        H501   1.082       .  S
C499        C602   1.384   1_545  A
C499        C500   1.383       .  A
C499        C579   1.471   1_545  S
C500        H502   1.082       .  S
C503        C504   1.345       .  D
C504        H506   1.085       .  S
C507        H509   1.085       .  S
C507        C508   1.343       .  D
C508        H510   1.087       .  S
C511        H513   1.085       .  S
C511        C512   1.344       .  D
C512        H514   1.083       .  S
C515        C516   1.345       .  D
C516        H518   1.087       .  S
C519        C520   1.205       .  T
N521        C525   1.356       .  A
N521        C522   1.352       .  A
N521        C552   1.439   1_554  S
C522        C523   1.381       .  A
C522        C624   1.440   1_554  S
C523        C524   1.375       .  A
C523        H526   1.082       .  S
C524        C525   1.384       .  A
C524        H527   1.083       .  S
C525        C540   1.483       .  S
N528        C532   1.350   1_556  A
N528        C529   1.355       .  A
N528        C549   1.447       .  S
C529        C530   1.385       .  A
C529        C623   1.440       .  S
C530        C531   1.377       .  A
C530        H533   1.083       .  S
C531        C532   1.381   1_556  A
C531        H534   1.082   1_556  S
C532        C537   1.482       .  S
C535        C541   1.536       .  S
C535        C539   1.532       .  S
C535        C619   1.511       .  S
C536        H543   1.086       .  S
C536        C537   1.364       .  D
C538        C542   1.538       .  S
C538        C540   1.535       .  S
C538        H544   1.109       .  S
C539        H545   1.086       .  S
C539        C540   1.369       .  D
C541        H546   1.084       .  S
C541        C542   1.370       .  D
C542        C615   1.488       .  S
C547        C553   1.533       .  S
C547        C551   1.532       .  S
C547        C611   1.508       .  S
C548        H555   1.083       .  S
C548        C549   1.367       .  D
C550        C554   1.538       .  S
C550        C552   1.533       .  S
C550        H556   1.108       .  S
C551        H557   1.086       .  S
C551        C552   1.366       .  D
C553        H558   1.083       .  S
C553        C554   1.369       .  D
C554        C608   1.487       .  S
N559        C563   1.343       .  A
N559        N560   1.323       .  A
N559       Cu567   2.071       .  S
N560        C561   1.348       .  A
N560       Cu566   2.082       .  S
C561        C562   1.388       .  A
C561        H564   1.081       .  S
C562        C563   1.380       .  A
C562        C616   1.477       .  S
C563        H565   1.082       .  S
Cu567       N577   2.070       .  S
Cu568       N570   2.072       .  S
Cu568       N576   2.072       .  S
N569        C573   1.347       .  A
N569        N570   1.323       .  A
N570        C571   1.344       .  A
C571        C572   1.385       .  A
C571        H574   1.081       .  S
C572        C573   1.384       .  A
C572        C620   1.479       .  S
C573        H575   1.082       .  S
N576        C580   1.345       .  A
N577        C578   1.345       .  A
C578        C579   1.383       .  A
C578        H581   1.082       .  S
C580        H582   1.082       .  S
N583        C587   1.343       .  A
N583        N584   1.322       .  A
N583       Cu591   2.071       .  S
N584        C585   1.346       .  A
C585        C586   1.383       .  A
C585        H588   1.082       .  S
C586        C587   1.386       .  A
C586        C612   1.477       .  S
C587        H589   1.081       .  S
Cu590       N593   2.074       .  S
Cu591       N601   2.071       .  S
Cu592       N594   2.070       .  S
Cu592       N600   2.069       .  S
N593        C597   1.346       .  A
N593        N594   1.322       .  A
N594        C595   1.342       .  A
C595        C596   1.380       .  A
C595        H598   1.082       .  S
C596        C597   1.386       .  A
C596        C607   1.474       .  S
C597        H599   1.081       .  S
N600        C604   1.344       .  A
N601        C602   1.345       .  A
C602        H605   1.082       .  S
C603        C604   1.383       .  A
C604        H606   1.082       .  S
C607        C608   1.345       .  D
C608        H610   1.085       .  S
C611        H613   1.085       .  S
C611        C612   1.343       .  D
C612        H614   1.087       .  S
C615        H617   1.085       .  S
C615        C616   1.344       .  D
C616        H618   1.083       .  S
C619        C620   1.345       .  D
C620        H622   1.087       .  S
C623        C624   1.205       .  T
