geometry optimzed in LAMMPS
_audit_creation_date              2020-11-30 
_audit_creation_method            'lammps2cif' 
_symmetry_space_group_name_H-M    'P1' 
_symmetry_Int_Tables_number       1 
_symmetry_cell_setting            triclinic 
loop_ 
_symmetry_equiv_pos_as_xyz 
  x,y,z 
_cell_length_a                    34.75867971 
_cell_length_b                    22.69807343702744 
_cell_length_c                    41.69917907130791 
_cell_angle_alpha                 90.00353512156677 
_cell_angle_beta                  94.73366507211364 
_cell_angle_gamma                 90.00754929658505 
loop_ 
_atom_site_label 
_atom_site_type_symbol 
_atom_site_fract_x 
_atom_site_fract_y 
_atom_site_fract_z 
_atom_site_charge 
N1          N  0.45552010  0.80262497  0.28247739    -0.23700
N2          N  0.47254892  0.84578308  0.26769185    -0.31600
C3          C  0.44598880  0.87485281  0.24854574     0.04600
C4          C  0.41062187  0.84888633  0.25146378     0.10600
C5          C  0.41748362  0.80309754  0.27301648    -0.02500
H6          H  0.45225341  0.91082452  0.23275185     0.11300
H7          H  0.39673901  0.77139485  0.28046637     0.12500
Cu8        Cu  0.03148861  0.86023389  0.27131166     0.44200
Cu9        Cu  0.48589830  0.74326493  0.31298142     0.42000
Cu10       Cu  0.09155972  0.75632191  0.31644271     0.43900
N11         N  0.09112367  0.86253904  0.27364054    -0.31100
N12         N  0.11359049  0.82394637  0.28986575    -0.25400
C13         C  0.15073745  0.83632005  0.28551701    -0.01500
C14         C  0.15125483  0.88493868  0.26562552     0.10700
C15         C  0.11317307  0.90045036  0.25853837     0.04500
H16         H  0.17531796  0.81153446  0.29580619     0.12200
H17         H  0.10221681  0.93615602  0.24319313     0.11300
N18         N  0.06213994  0.69444236  0.34180475    -0.32600
N19         N  0.02407103  0.68973347  0.34081439    -0.24800
C20         C  0.01499961  0.64553469  0.36039796     0.00000
C21         C  0.04894342  0.62166502  0.37420383     0.08600
C22         C  0.07820221  0.65344574  0.36197618     0.06700
H23         H  0.48589966  0.63192740  0.36425718     0.11800
H24         H  0.10893632  0.64739653  0.36737263     0.10600
C25         C  0.07338182  0.48570901  0.43730877     0.01100
C26         C  0.47985633  0.40326568  0.47378316     0.01100
N27         N  0.09772040  0.08634593  0.12861125    -0.23700
N28         N  0.08069175  0.04318687  0.14339616    -0.31600
C29         C  0.10725184  0.01411762  0.16254259     0.04600
C30         C  0.14261856  0.04008548  0.15962537     0.10600
C31         C  0.13575669  0.08587450  0.13807286    -0.02500
H32         H  0.10098725  0.97814562  0.17833623     0.11300
H33         H  0.15650105  0.11757828  0.13062367     0.12500
Cu34       Cu  0.02175207  0.02873473  0.13977580     0.44200
Cu35       Cu  0.06734226  0.14570632  0.09810748     0.42000
Cu36       Cu  0.46168118  0.13264936  0.09464668     0.43900
N37         N  0.46211696  0.02643046  0.13744741    -0.31100
N38         N  0.43965025  0.06502432  0.12122299    -0.25400
C39         C  0.40250331  0.05265172  0.12557232    -0.01500
C40         C  0.40198577  0.00403251  0.14546335     0.10700
C41         C  0.44006744  0.98851938  0.15254964     0.04500
H42         H  0.37792293  0.07743862  0.11528396     0.12200
H43         H  0.45102356  0.95281314  0.16789451     0.11300
N44         N  0.49110062  0.19452982  0.06928508    -0.32600
N45         N  0.02916951  0.19923873  0.07027524    -0.24800
C46         C  0.03824075  0.24343831  0.05069212     0.00000
C47         C  0.50429682  0.26730851  0.03688676     0.08600
C48         C  0.47503818  0.23552721  0.04911425     0.06700
H49         H  0.06734061  0.25704583  0.04683289     0.11800
H50         H  0.44430401  0.24157661  0.04371813     0.10600
N51         N  0.34769548  0.30258558  0.37865014    -0.23700
N52         N  0.33067356  0.34572375  0.39345419    -0.31600
C53         C  0.35723947  0.37477793  0.41261002     0.04600
C54         C  0.39260261  0.34882103  0.40967891     0.10600
C55         C  0.38573287  0.30305508  0.38810805    -0.02500
H56         H  0.35098245  0.41073862  0.42841419     0.11300
H57         H  0.40647352  0.27137047  0.38063965     0.12500
Cu58       Cu  0.27173608  0.36018134  0.38983007     0.44200
Cu59       Cu  0.31730789  0.24326592  0.34811721     0.42000
Cu60       Cu  0.21164827  0.25636071  0.34461315     0.43900
N61         N  0.21209958  0.36251484  0.38747127    -0.31100
N62         N  0.18962723  0.32395888  0.37121278    -0.25400
C63         C  0.15248011  0.33634772  0.37554522    -0.01500
C64         C  0.15196789  0.38493732  0.39546102     0.10700
C65         C  0.19005315  0.40041707  0.40257901     0.04500
H66         H  0.12789530  0.31159291  0.36522721     0.12200
H67         H  0.20101314  0.43609712  0.41794673     0.11300
N68         N  0.24106436  0.19448686  0.31924829    -0.32600
N69         N  0.27913272  0.18976480  0.32025586    -0.24800
C70         C  0.28820371  0.14556434  0.30067310     0.00000
C71         C  0.25426030  0.12170724  0.28684929     0.08600
C72         C  0.22500167  0.15349661  0.29906575     0.06700
H73         H  0.31730304  0.13194244  0.29682992     0.11800
H74         H  0.19426783  0.14745202  0.29365792     0.10600
C75         C  0.22984444  0.98569729  0.22375949     0.01100
C76         C  0.32339562  0.90327745  0.18733098     0.01100
N77         N  0.20554209  0.58638511  0.03244367    -0.23700
N78         N  0.22256377  0.54324588  0.01764030    -0.31600
C79         C  0.19599786  0.51419212  0.99848424     0.04600
C80         C  0.16063497  0.54015046  0.00141447     0.10600
C81         C  0.16750486  0.58591677  0.02298509    -0.02500
H82         H  0.20225478  0.47823100  0.98268032     0.11300
H83         H  0.14676456  0.61760256  0.03045274     0.12500
Cu84       Cu  0.28150116  0.52878681  0.02126512     0.44200
Cu85       Cu  0.23592949  0.64570538  0.06297631     0.42000
Cu86       Cu  0.34158900  0.63261049  0.06648007     0.43900
N87         N  0.34113774  0.52645417  0.02362353    -0.31100
N88         N  0.36361000  0.56501154  0.03988107    -0.25400
C89         C  0.40075706  0.55262376  0.03554796    -0.01500
C90         C  0.40126943  0.50403341  0.01563272     0.10700
C91         C  0.36318426  0.48855215  0.00851577     0.04500
H92         H  0.42534178  0.57737997  0.04586502     0.12200
H93         H  0.35222430  0.45287140  0.99314844     0.11300
N94         N  0.31217312  0.69448541  0.09184430    -0.32600
N95         N  0.27410478  0.69920757  0.09083689    -0.24800
C96         C  0.26503398  0.74340885  0.11041921     0.00000
C97         C  0.29897755  0.76726639  0.12424250     0.08600
C98         C  0.32823600  0.73547639  0.11202626     0.06700
H99         H  0.23593474  0.75703090  0.11426249     0.11800
H100        H  0.35896989  0.74152099  0.11743388     0.10600
C101        C  0.31058285  0.85532528  0.16536545    -0.09700
C102        C  0.30354015  0.81531589  0.14671550    -0.11300
C103        C  0.26303531  0.95655636  0.21090945    -0.09700
C104        C  0.29020528  0.93241953  0.20018122    -0.11300
C105        C  0.24265620  0.03364947  0.24572540    -0.09700
C106        C  0.24969808  0.07365846  0.26437579    -0.11300
C107        C  0.17784541  0.02576614  0.17849907    -0.09700
C108        C  0.20386318  0.00962866  0.19741993    -0.11300
C109        C  0.34575782  0.94569992  0.16990102    -0.09700
C110        C  0.36925390  0.97531538  0.15748727    -0.11300
C111        C  0.45749760  0.44569123  0.99121106    -0.09700
C112        C  0.43400137  0.47530939  0.00361892    -0.11300
C113        C  0.49973233  0.31534559  0.51440983    -0.09700
C114        C  0.49268157  0.35533832  0.49575486    -0.11300
C115        C  0.42783849  0.36314708  0.42854319    -0.09700
C116        C  0.45386558  0.37930004  0.44745483    -0.11300
C117        C  0.09574005  0.44328230  0.41988132    -0.09700
C118        C  0.11923599  0.41366274  0.40747402    -0.11300
C119        C  0.09937254  0.50967395  0.46363734    -0.09300
C120        C  0.12539941  0.52582590  0.98254932    -0.11300
C121        C  0.04019965  0.45656001  0.45017475    -0.09700
C122        C  0.01303785  0.43241586  0.46091682    -0.11300
C123        C  0.37539475  0.86320693  0.23259080    -0.09700
C124        C  0.34937691  0.87934552  0.21367035    -0.11300
C125        C  0.05350766  0.57362886  0.39668140    -0.09700
C126        C  0.06055769  0.53363647  0.41533673    -0.11300
C127        C  0.20748256  0.94327370  0.24118901    -0.09700
C128        C  0.18398668  0.91365703  0.25360225    -0.11300
N129        N  0.45552000  0.80262499  0.78247737    -0.23700
N130        N  0.47254883  0.84578309  0.76769185    -0.31600
C131        C  0.44598873  0.87485294  0.74854574     0.04600
C132        C  0.41062178  0.84888645  0.75146384     0.10600
C133        C  0.41748353  0.80309762  0.77301648    -0.02500
H134        H  0.45225336  0.91082456  0.73275190     0.11300
H135        H  0.39673890  0.77139485  0.78046635     0.12500
Cu136      Cu  0.03148855  0.86023403  0.77131182     0.44200
Cu137      Cu  0.48589819  0.74326500  0.81298139     0.42000
Cu138      Cu  0.09155981  0.75632197  0.81644269     0.43900
N139        N  0.09112368  0.86253920  0.77364066    -0.31100
N140        N  0.11359055  0.82394654  0.78986585    -0.25400
C141        C  0.15073750  0.83632008  0.78551700    -0.01500
C142        C  0.15125483  0.88493862  0.76562545     0.10700
C143        C  0.11317307  0.90045035  0.75853838     0.04500
H144        H  0.17531801  0.81153451  0.79580616     0.12200
H145        H  0.10221679  0.93615604  0.74319314     0.11300
N146        N  0.06213997  0.69444240  0.84180473    -0.32600
N147        N  0.02407105  0.68973359  0.84081431    -0.24800
C148        C  0.01499953  0.64553483  0.86039787     0.00000
C149        C  0.04894331  0.62166507  0.87420382     0.08600
C150        C  0.07820215  0.65344574  0.86197620     0.06700
H151        H  0.48589964  0.63192767  0.86425704     0.11800
H152        H  0.10893627  0.64739644  0.86737271     0.10600
C153        C  0.07338172  0.48570892  0.93730871     0.01100
C154        C  0.47985629  0.40326572  0.97378318     0.01100
N155        N  0.09772048  0.08634575  0.62861121    -0.23700
N156        N  0.08069179  0.04318687  0.64339624    -0.31600
C157        C  0.10725184  0.01411766  0.66254267     0.04600
C158        C  0.14261856  0.04008531  0.65962539     0.10600
C159        C  0.13575678  0.08587425  0.63807280    -0.02500
H160        H  0.10098725  0.97814562  0.67833639     0.11300
H161        H  0.15650115  0.11757790  0.63062359     0.12500
Cu162      Cu  0.02175213  0.02873486  0.63977575     0.44200
Cu163      Cu  0.06734233  0.14570607  0.59810739     0.42000
Cu164      Cu  0.46168101  0.13264949  0.59464663     0.43900
N165        N  0.46211697  0.02643063  0.63744744    -0.31100
N166        N  0.43965025  0.06502447  0.62122304    -0.25400
C167        C  0.40250330  0.05265183  0.62557234    -0.01500
C168        C  0.40198577  0.00403259  0.64546335     0.10700
C169        C  0.44006745  0.98851953  0.65254966     0.04500
H170        H  0.37792293  0.07743866  0.61528397     0.12200
H171        H  0.45102362  0.95281329  0.66789453     0.11300
N172        N  0.49110065  0.19452998  0.56928517    -0.32600
N173        N  0.02916955  0.19923873  0.57027527    -0.24800
C174        C  0.03824077  0.24343831  0.55069216     0.00000
C175        C  0.50429688  0.26730865  0.53688687     0.08600
C176        C  0.47503820  0.23552742  0.54911436     0.06700
H177        H  0.06734067  0.25704573  0.54683282     0.11800
H178        H  0.44430409  0.24157676  0.54371819     0.10600
N179        N  0.34769547  0.30258549  0.87865026    -0.23700
N180        N  0.33067360  0.34572373  0.89345427    -0.31600
C181        C  0.35723955  0.37477802  0.91261000     0.04600
C182        C  0.39260265  0.34882105  0.90967890     0.10600
C183        C  0.38573289  0.30305503  0.88810808    -0.02500
H184        H  0.35098260  0.41073885  0.92841412     0.11300
H185        H  0.40647348  0.27137048  0.88063959     0.12500
Cu186      Cu  0.27173614  0.36018147  0.88983001     0.44200
Cu187      Cu  0.31730791  0.24326591  0.84811731     0.42000
Cu188      Cu  0.21164815  0.25636074  0.84461306     0.43900
N189        N  0.21209962  0.36251482  0.88747127    -0.31100
N190        N  0.18962722  0.32395878  0.87121281    -0.25400
C191        C  0.15248016  0.33634768  0.87554527    -0.01500
C192        C  0.15196791  0.38493727  0.89546105     0.10700
C193        C  0.19005319  0.40041703  0.90257898     0.04500
H194        H  0.12789527  0.31159291  0.86522722     0.12200
H195        H  0.20101324  0.43609723  0.91794665     0.11300
N196        N  0.24106436  0.19448675  0.81924831    -0.32600
N197        N  0.27913275  0.18976473  0.82025590    -0.24800
C198        C  0.28820376  0.14556427  0.80067313     0.00000
C199        C  0.25426037  0.12170710  0.78684931     0.08600
C200        C  0.22500175  0.15349647  0.79906577     0.06700
H201        H  0.31730307  0.13194240  0.79682992     0.11800
H202        H  0.19426786  0.14745188  0.79365792     0.10600
C203        C  0.22984441  0.98569730  0.72375949     0.01100
C204        C  0.32339563  0.90327744  0.68733097     0.01100
N205        N  0.20554218  0.58638509  0.53244374    -0.23700
N206        N  0.22256387  0.54324576  0.51764046    -0.31600
C207        C  0.19599800  0.51419205  0.49848434     0.04600
C208        C  0.16063514  0.54015052  0.50141446     0.10600
C209        C  0.16750498  0.58591683  0.52298508    -0.02500
H210        H  0.20225495  0.47823088  0.48268047     0.11300
H211        H  0.14676468  0.61760264  0.53045270     0.12500
Cu212      Cu  0.28150126  0.52878690  0.52126527     0.44200
Cu213      Cu  0.23592957  0.64570548  0.56297625     0.42000
Cu214      Cu  0.34158905  0.63261029  0.56648005     0.43900
N215        N  0.34113779  0.52645409  0.52362349    -0.31100
N216        N  0.36361007  0.56501131  0.53988112    -0.25400
C217        C  0.40075712  0.55262357  0.53554798    -0.01500
C218        C  0.40126948  0.50403334  0.51563267     0.10700
C219        C  0.36318428  0.48855212  0.50851565     0.04500
H220        H  0.42534182  0.57737984  0.54586501     0.12200
H221        H  0.35222433  0.45287150  0.49314828     0.11300
N222        N  0.31217318  0.69448525  0.59184432    -0.32600
N223        N  0.27410482  0.69920739  0.59083695    -0.24800
C224        C  0.26503406  0.74340875  0.61041919     0.00000
C225        C  0.29897760  0.76726638  0.62424245     0.08600
C226        C  0.32823605  0.73547635  0.61202619     0.06700
H227        H  0.23593477  0.75703096  0.61426237     0.11800
H228        H  0.35896995  0.74152104  0.61743371     0.10600
C229        C  0.31058284  0.85532532  0.66536539    -0.09700
C230        C  0.30354021  0.81531596  0.64671540    -0.11300
C231        C  0.26303529  0.95655641  0.71090941    -0.09700
C232        C  0.29020532  0.93241963  0.70018123    -0.11300
C233        C  0.24265625  0.03364938  0.74572540    -0.09700
C234        C  0.24969819  0.07365833  0.76437580    -0.11300
C235        C  0.17784536  0.02576608  0.67849913    -0.09700
C236        C  0.20386312  0.00962872  0.69742000    -0.11300
C237        C  0.34575786  0.94569987  0.66990099    -0.09700
C238        C  0.36925388  0.97531539  0.65748722    -0.11300
C239        C  0.45749774  0.44569127  0.49121109    -0.09700
C240        C  0.43400145  0.47530941  0.50361888    -0.11300
C241        C  0.49973229  0.31534559  0.01440981    -0.09700
C242        C  0.49268158  0.35533839  0.99575488    -0.11300
C243        C  0.42783850  0.36314699  0.92854323    -0.09700
C244        C  0.45386563  0.37929996  0.94745483    -0.11300
C245        C  0.09573993  0.44328208  0.91988129    -0.09700
C246        C  0.11923597  0.41366261  0.90747403    -0.11300
C247        C  0.09937243  0.50967403  0.96363723    -0.09300
C248        C  0.12539957  0.52582581  0.48254937    -0.11300
C249        C  0.04019961  0.45656005  0.95017483    -0.09700
C250        C  0.01303780  0.43241600  0.96091691    -0.11300
C251        C  0.37539469  0.86320695  0.73259083    -0.09700
C252        C  0.34937687  0.87934544  0.71367034    -0.11300
C253        C  0.05350744  0.57362880  0.89668135    -0.09700
C254        C  0.06055748  0.53363630  0.91533663    -0.11300
C255        C  0.20748252  0.94327377  0.74118902    -0.09700
C256        C  0.18398667  0.91365711  0.75360229    -0.11300
N257        N  0.95552010  0.80262497  0.28247739    -0.23700
N258        N  0.97254892  0.84578308  0.26769185    -0.31600
C259        C  0.94598880  0.87485281  0.24854574     0.04600
C260        C  0.91062187  0.84888632  0.25146378     0.10600
C261        C  0.91748363  0.80309754  0.27301648    -0.02500
H262        H  0.95225341  0.91082452  0.23275185     0.11300
H263        H  0.89673901  0.77139485  0.28046637     0.12500
Cu264      Cu  0.53148861  0.86023389  0.27131166     0.44200
Cu265      Cu  0.98589831  0.74326493  0.31298143     0.42000
Cu266      Cu  0.59155973  0.75632190  0.31644271     0.43900
N267        N  0.59112367  0.86253904  0.27364054    -0.31100
N268        N  0.61359050  0.82394637  0.28986575    -0.25400
C269        C  0.65073746  0.83632005  0.28551701    -0.01500
C270        C  0.65125483  0.88493867  0.26562552     0.10700
C271        C  0.61317307  0.90045036  0.25853837     0.04500
H272        H  0.67531796  0.81153446  0.29580619     0.12200
H273        H  0.60221682  0.93615602  0.24319313     0.11300
N274        N  0.56213990  0.69444236  0.34180475    -0.32600
N275        N  0.52407100  0.68973347  0.34081438    -0.24800
C276        C  0.51499957  0.64553469  0.36039795     0.00000
C277        C  0.54894338  0.62166502  0.37420383     0.08600
C278        C  0.57820219  0.65344574  0.36197620     0.06700
H279        H  0.98589972  0.63192739  0.36425719     0.11800
H280        H  0.60893625  0.64739654  0.36737264     0.10600
C281        C  0.57338183  0.48570900  0.43730877     0.01100
C282        C  0.97985633  0.40326568  0.47378316     0.01100
N283        N  0.59772040  0.08634593  0.12861125    -0.23700
N284        N  0.58069176  0.04318687  0.14339616    -0.31600
C285        C  0.60725184  0.01411762  0.16254259     0.04600
C286        C  0.64261856  0.04008548  0.15962537     0.10600
C287        C  0.63575670  0.08587450  0.13807286    -0.02500
H288        H  0.60098726  0.97814562  0.17833623     0.11300
H289        H  0.65650106  0.11757828  0.13062367     0.12500
Cu290      Cu  0.52175209  0.02873473  0.13977581     0.44200
Cu291      Cu  0.56734227  0.14570632  0.09810748     0.42000
Cu292      Cu  0.96168116  0.13264935  0.09464668     0.43900
N293        N  0.96211690  0.02643048  0.13744740    -0.31100
N294        N  0.93965019  0.06502432  0.12122299    -0.25400
C295        C  0.90250324  0.05265172  0.12557232    -0.01500
C296        C  0.90198571  0.00403251  0.14546334     0.10700
C297        C  0.94006739  0.98851939  0.15254964     0.04500
H298        H  0.87792285  0.07743857  0.11528398     0.12200
H299        H  0.95102352  0.95281316  0.16789450     0.11300
N300        N  0.99110062  0.19452982  0.06928508    -0.32600
N301        N  0.52916951  0.19923873  0.07027524    -0.24800
C302        C  0.53824075  0.24343831  0.05069212     0.00000
C303        C  0.00429682  0.26730851  0.03688676     0.08600
C304        C  0.97503818  0.23552721  0.04911425     0.06700
H305        H  0.56734061  0.25704583  0.04683288     0.11800
H306        H  0.94430401  0.24157661  0.04371813     0.10600
N307        N  0.84769548  0.30258558  0.37865014    -0.23700
N308        N  0.83067357  0.34572375  0.39345419    -0.31600
C309        C  0.85723948  0.37477793  0.41261002     0.04600
C310        C  0.89260261  0.34882103  0.40967891     0.10600
C311        C  0.88573287  0.30305508  0.38810805    -0.02500
H312        H  0.85098245  0.41073862  0.42841419     0.11300
H313        H  0.90647353  0.27137047  0.38063965     0.12500
Cu314      Cu  0.77173608  0.36018134  0.38983007     0.44200
Cu315      Cu  0.81730790  0.24326592  0.34811721     0.42000
Cu316      Cu  0.71164828  0.25636071  0.34461315     0.43900
N317        N  0.71209958  0.36251484  0.38747127    -0.31100
N318        N  0.68962723  0.32395888  0.37121278    -0.25400
C319        C  0.65248012  0.33634772  0.37554522    -0.01500
C320        C  0.65196789  0.38493732  0.39546102     0.10700
C321        C  0.69005315  0.40041707  0.40257901     0.04500
H322        H  0.62789530  0.31159291  0.36522721     0.12200
H323        H  0.70101315  0.43609712  0.41794673     0.11300
N324        N  0.74106436  0.19448686  0.31924829    -0.32600
N325        N  0.77913273  0.18976480  0.32025586    -0.24800
C326        C  0.78820372  0.14556434  0.30067310     0.00000
C327        C  0.75426031  0.12170724  0.28684929     0.08600
C328        C  0.72500167  0.15349661  0.29906575     0.06700
H329        H  0.81730305  0.13194244  0.29682992     0.11800
H330        H  0.69426783  0.14745202  0.29365792     0.10600
C331        C  0.72984444  0.98569730  0.22375949     0.01100
C332        C  0.82339561  0.90327743  0.18733099     0.01100
N333        N  0.70554209  0.58638511  0.03244367    -0.23700
N334        N  0.72256378  0.54324588  0.01764030    -0.31600
C335        C  0.69599786  0.51419212  0.99848424     0.04600
C336        C  0.66063497  0.54015046  0.00141447     0.10600
C337        C  0.66750487  0.58591677  0.02298509    -0.02500
H338        H  0.70225478  0.47823100  0.98268032     0.11300
H339        H  0.64676457  0.61760256  0.03045274     0.12500
Cu340      Cu  0.78150117  0.52878681  0.02126512     0.44200
Cu341      Cu  0.73592950  0.64570538  0.06297631     0.42000
Cu342      Cu  0.84158900  0.63261049  0.06648007     0.43900
N343        N  0.84113774  0.52645417  0.02362353    -0.31100
N344        N  0.86361001  0.56501154  0.03988107    -0.25400
C345        C  0.90075706  0.55262376  0.03554796    -0.01500
C346        C  0.90126944  0.50403341  0.01563272     0.10700
C347        C  0.86318426  0.48855215  0.00851577     0.04500
H348        H  0.92534178  0.57737997  0.04586502     0.12200
H349        H  0.85222430  0.45287140  0.99314844     0.11300
N350        N  0.81217312  0.69448541  0.09184430    -0.32600
N351        N  0.77410478  0.69920757  0.09083689    -0.24800
C352        C  0.76503398  0.74340885  0.11041921     0.00000
C353        C  0.79897755  0.76726639  0.12424250     0.08600
C354        C  0.82823600  0.73547639  0.11202626     0.06700
H355        H  0.73593475  0.75703090  0.11426249     0.11800
H356        H  0.85896989  0.74152099  0.11743388     0.10600
C357        C  0.81058285  0.85532527  0.16536545    -0.09700
C358        C  0.80354016  0.81531589  0.14671549    -0.11300
C359        C  0.76303531  0.95655636  0.21090945    -0.09700
C360        C  0.79020528  0.93241951  0.20018122    -0.11300
C361        C  0.74265620  0.03364947  0.24572540    -0.09700
C362        C  0.74969809  0.07365846  0.26437579    -0.11300
C363        C  0.67784542  0.02576614  0.17849907    -0.09700
C364        C  0.70386318  0.00962866  0.19741993    -0.11300
C365        C  0.84575777  0.94569993  0.16990102    -0.09700
C366        C  0.86925383  0.97531541  0.15748726    -0.11300
C367        C  0.95749760  0.44569123  0.99121106    -0.09700
C368        C  0.93400138  0.47530939  0.00361892    -0.11300
C369        C  0.99973233  0.31534559  0.51440983    -0.09700
C370        C  0.99268157  0.35533832  0.49575486    -0.11300
C371        C  0.92783849  0.36314708  0.42854319    -0.09700
C372        C  0.95386559  0.37930004  0.44745483    -0.11300
C373        C  0.59574005  0.44328230  0.41988132    -0.09700
C374        C  0.61923600  0.41366274  0.40747402    -0.11300
C375        C  0.59937253  0.50967395  0.46363733    -0.09300
C376        C  0.62539941  0.52582590  0.98254932    -0.11300
C377        C  0.54019965  0.45656001  0.45017475    -0.09700
C378        C  0.51303785  0.43241586  0.46091682    -0.11300
C379        C  0.87539476  0.86320693  0.23259080    -0.09700
C380        C  0.84937691  0.87934551  0.21367035    -0.11300
C381        C  0.55350764  0.57362886  0.39668140    -0.09700
C382        C  0.56055769  0.53363647  0.41533673    -0.11300
C383        C  0.70748256  0.94327370  0.24118901    -0.09700
C384        C  0.68398668  0.91365703  0.25360225    -0.11300
N385        N  0.95552000  0.80262499  0.78247737    -0.23700
N386        N  0.97254883  0.84578309  0.76769185    -0.31600
C387        C  0.94598873  0.87485294  0.74854574     0.04600
C388        C  0.91062178  0.84888645  0.75146384     0.10600
C389        C  0.91748354  0.80309762  0.77301648    -0.02500
H390        H  0.95225337  0.91082456  0.73275190     0.11300
H391        H  0.89673891  0.77139485  0.78046635     0.12500
Cu392      Cu  0.53148855  0.86023403  0.77131182     0.44200
Cu393      Cu  0.98589820  0.74326500  0.81298139     0.42000
Cu394      Cu  0.59155981  0.75632197  0.81644269     0.43900
N395        N  0.59112368  0.86253920  0.77364066    -0.31100
N396        N  0.61359055  0.82394654  0.78986585    -0.25400
C397        C  0.65073750  0.83632008  0.78551700    -0.01500
C398        C  0.65125483  0.88493862  0.76562545     0.10700
C399        C  0.61317307  0.90045035  0.75853838     0.04500
H400        H  0.67531801  0.81153451  0.79580616     0.12200
H401        H  0.60221679  0.93615604  0.74319314     0.11300
N402        N  0.56213997  0.69444240  0.84180473    -0.32600
N403        N  0.52407105  0.68973359  0.84081431    -0.24800
C404        C  0.51499953  0.64553483  0.86039787     0.00000
C405        C  0.54894332  0.62166508  0.87420382     0.08600
C406        C  0.57820216  0.65344574  0.86197620     0.06700
H407        H  0.98589963  0.63192767  0.86425704     0.11800
H408        H  0.60893627  0.64739644  0.86737271     0.10600
C409        C  0.57338172  0.48570892  0.93730871     0.01100
C410        C  0.97985629  0.40326571  0.97378318     0.01100
N411        N  0.59772048  0.08634575  0.62861121    -0.23700
N412        N  0.58069179  0.04318687  0.64339624    -0.31600
C413        C  0.60725184  0.01411766  0.66254267     0.04600
C414        C  0.64261856  0.04008532  0.65962539     0.10600
C415        C  0.63575678  0.08587425  0.63807280    -0.02500
H416        H  0.60098726  0.97814562  0.67833639     0.11300
H417        H  0.65650116  0.11757790  0.63062359     0.12500
Cu418      Cu  0.52175213  0.02873486  0.63977575     0.44200
Cu419      Cu  0.56734233  0.14570607  0.59810739     0.42000
Cu420      Cu  0.96168102  0.13264949  0.59464663     0.43900
N421        N  0.96211697  0.02643062  0.63744744    -0.31100
N422        N  0.93965025  0.06502447  0.62122304    -0.25400
C423        C  0.90250331  0.05265183  0.62557234    -0.01500
C424        C  0.90198577  0.00403259  0.64546335     0.10700
C425        C  0.94006746  0.98851953  0.65254966     0.04500
H426        H  0.87792294  0.07743866  0.61528397     0.12200
H427        H  0.95102362  0.95281329  0.66789453     0.11300
N428        N  0.99110065  0.19452998  0.56928517    -0.32600
N429        N  0.52916955  0.19923873  0.57027527    -0.24800
C430        C  0.53824077  0.24343831  0.55069216     0.00000
C431        C  0.00429688  0.26730865  0.53688687     0.08600
C432        C  0.97503820  0.23552742  0.54911436     0.06700
H433        H  0.56734067  0.25704572  0.54683282     0.11800
H434        H  0.94430409  0.24157676  0.54371819     0.10600
N435        N  0.84769548  0.30258549  0.87865026    -0.23700
N436        N  0.83067360  0.34572373  0.89345427    -0.31600
C437        C  0.85723955  0.37477802  0.91261000     0.04600
C438        C  0.89260265  0.34882105  0.90967890     0.10600
C439        C  0.88573289  0.30305503  0.88810808    -0.02500
H440        H  0.85098261  0.41073885  0.92841412     0.11300
H441        H  0.90647349  0.27137048  0.88063959     0.12500
Cu442      Cu  0.77173614  0.36018147  0.88983001     0.44200
Cu443      Cu  0.81730792  0.24326591  0.84811731     0.42000
Cu444      Cu  0.71164815  0.25636074  0.84461306     0.43900
N445        N  0.71209962  0.36251482  0.88747127    -0.31100
N446        N  0.68962722  0.32395878  0.87121281    -0.25400
C447        C  0.65248016  0.33634768  0.87554527    -0.01500
C448        C  0.65196792  0.38493727  0.89546105     0.10700
C449        C  0.69005319  0.40041703  0.90257898     0.04500
H450        H  0.62789528  0.31159291  0.86522722     0.12200
H451        H  0.70101324  0.43609723  0.91794665     0.11300
N452        N  0.74106437  0.19448675  0.81924831    -0.32600
N453        N  0.77913276  0.18976473  0.82025590    -0.24800
C454        C  0.78820377  0.14556427  0.80067313     0.00000
C455        C  0.75426036  0.12170710  0.78684931     0.08600
C456        C  0.72500176  0.15349647  0.79906577     0.06700
H457        H  0.81730307  0.13194239  0.79682992     0.11800
H458        H  0.69426786  0.14745188  0.79365792     0.10600
C459        C  0.72984438  0.98569729  0.72375949     0.01100
C460        C  0.82339563  0.90327744  0.68733097     0.01100
N461        N  0.70554213  0.58638511  0.53244375    -0.23700
N462        N  0.72256384  0.54324579  0.51764046    -0.31600
C463        C  0.69599799  0.51419207  0.49848434     0.04600
C464        C  0.66063511  0.54015051  0.50141446     0.10600
C465        C  0.66750495  0.58591679  0.52298509    -0.02500
H466        H  0.70225496  0.47823091  0.48268047     0.11300
H467        H  0.64676460  0.61760260  0.53045273     0.12500
Cu468      Cu  0.78150125  0.52878691  0.52126527     0.44200
Cu469      Cu  0.73592956  0.64570547  0.56297625     0.42000
Cu470      Cu  0.84158905  0.63261029  0.56648005     0.43900
N471        N  0.84113779  0.52645409  0.52362349    -0.31100
N472        N  0.86361007  0.56501131  0.53988112    -0.25400
C473        C  0.90075712  0.55262357  0.53554798    -0.01500
C474        C  0.90126948  0.50403334  0.51563267     0.10700
C475        C  0.86318429  0.48855212  0.50851565     0.04500
H476        H  0.92534183  0.57737984  0.54586501     0.12200
H477        H  0.85222433  0.45287150  0.49314828     0.11300
N478        N  0.81217319  0.69448525  0.59184432    -0.32600
N479        N  0.77410483  0.69920739  0.59083694    -0.24800
C480        C  0.76503407  0.74340875  0.61041919     0.00000
C481        C  0.79897761  0.76726638  0.62424245     0.08600
C482        C  0.82823605  0.73547635  0.61202619     0.06700
H483        H  0.73593477  0.75703096  0.61426237     0.11800
H484        H  0.85896995  0.74152104  0.61743371     0.10600
C485        C  0.81058285  0.85532532  0.66536539    -0.09700
C486        C  0.80354021  0.81531596  0.64671540    -0.11300
C487        C  0.76303530  0.95655645  0.71090943    -0.09700
C488        C  0.79020532  0.93241964  0.70018124    -0.11300
C489        C  0.74265614  0.03364940  0.74572541    -0.09700
C490        C  0.74969814  0.07365834  0.76437580    -0.11300
C491        C  0.67784536  0.02576608  0.67849912    -0.09700
C492        C  0.70386310  0.00962869  0.69741999    -0.11300
C493        C  0.84575786  0.94569987  0.66990099    -0.09700
C494        C  0.86925389  0.97531539  0.65748722    -0.11300
C495        C  0.95749774  0.44569127  0.49121109    -0.09700
C496        C  0.93400146  0.47530941  0.50361888    -0.11300
C497        C  0.99973229  0.31534559  0.01440981    -0.09700
C498        C  0.99268159  0.35533839  0.99575488    -0.11300
C499        C  0.92783850  0.36314699  0.92854323    -0.09700
C500        C  0.95386563  0.37929996  0.94745483    -0.11300
C501        C  0.59573994  0.44328208  0.91988129    -0.09700
C502        C  0.61923598  0.41366261  0.90747403    -0.11300
C503        C  0.59937244  0.50967403  0.96363723    -0.09300
C504        C  0.62539956  0.52582579  0.48254936    -0.11300
C505        C  0.54019961  0.45656005  0.95017483    -0.09700
C506        C  0.51303780  0.43241600  0.96091691    -0.11300
C507        C  0.87539469  0.86320695  0.73259083    -0.09700
C508        C  0.84937687  0.87934544  0.71367034    -0.11300
C509        C  0.55350744  0.57362880  0.89668135    -0.09700
C510        C  0.56055749  0.53363630  0.91533663    -0.11300
C511        C  0.70748251  0.94327374  0.74118901    -0.09700
C512        C  0.68398666  0.91365710  0.75360229    -0.11300
loop_ 
_geom_bond_atom_site_label_1 
_geom_bond_atom_site_label_2 
_geom_bond_distance 
_geom_bond_site_symmetry_2 
_ccdc_geom_bond_type 
N1            N2   1.323       .  A
N1            C5   1.348       .  A
N1           Cu9   2.080       .  S
N2            C3   1.343       .  A
N2         Cu264   2.068       .  S
C3            C4   1.378       .  A
C3            H6   1.082       .  S
C4            C5   1.382       .  A
C4          C123   1.437       .  S
C5            H7   1.082       .  S
Cu8          N11   2.068       .  S
Cu8         N258   2.068   1_455  S
Cu9         N275   2.081       .  S
Cu10         N12   2.076       .  S
Cu10         N18   2.077       .  S
N11          N12   1.322       .  A
N11          C15   1.343       .  A
N12          C13   1.348       .  A
C13          C14   1.382       .  A
C13          H16   1.082       .  S
C14          C15   1.378       .  A
C14         C128   1.437       .  S
C15          H17   1.082       .  S
N18          N19   1.325       .  A
N18          C22   1.345       .  A
N19          C20   1.347       .  A
N19        Cu265   2.081   1_455  S
C20          C21   1.380       .  A
C20         H279   1.082   1_455  S
C21          C22   1.378       .  A
C21         C125   1.438       .  S
C22          H24   1.082       .  S
H23         C276   1.082       .  S
C25         C117   1.467       .  S
C25         C119   1.467       .  S
C25         C121   1.469       .  S
C25         C126   1.468       .  S
C26         C114   1.468       .  S
C26         C116   1.467       .  S
C26         C239   1.467       .  S
C26         C378   1.469       .  S
N27          N28   1.323       .  A
N27          C31   1.348       .  A
N27         Cu35   2.080       .  S
N28          C29   1.343       .  A
N28         Cu34   2.068       .  S
C29          C30   1.378       .  A
C29          H32   1.082   1_545  S
C30          C31   1.382       .  A
C30         C107   1.437       .  S
C31          H33   1.082       .  S
Cu34        N293   2.068   1_455  S
Cu35         N45   2.081       .  S
Cu36         N38   2.076       .  S
Cu36         N44   2.077       .  S
N37          N38   1.322       .  A
N37          C41   1.343   1_545  A
N37        Cu290   2.068       .  S
N38          C39   1.348       .  A
C39          C40   1.382       .  A
C39          H42   1.082       .  S
C40          C41   1.378   1_545  A
C40         C110   1.437   1_545  S
C41          H43   1.082       .  S
N44         N301   1.325       .  A
N44          C48   1.345       .  A
N45         N300   1.325   1_455  A
N45          C46   1.347       .  A
C46         C303   1.380       .  A
C46          H49   1.082       .  S
C47          C48   1.378       .  A
C47         C302   1.380       .  A
C47         C241   1.438       .  S
C48          H50   1.082       .  S
N51          N52   1.323       .  A
N51          C55   1.348       .  A
N51         Cu59   2.080       .  S
N52          C53   1.343       .  A
N52         Cu58   2.068       .  S
C53          C54   1.378       .  A
C53          H56   1.082       .  S
C54          C55   1.382       .  A
C54         C115   1.437       .  S
C55          H57   1.082       .  S
Cu58         N61   2.068       .  S
Cu59         N69   2.081       .  S
Cu60         N62   2.076       .  S
Cu60         N68   2.077       .  S
N61          N62   1.322       .  A
N61          C65   1.343       .  A
N62          C63   1.348       .  A
C63          C64   1.382       .  A
C63          H66   1.082       .  S
C64          C65   1.378       .  A
C64         C118   1.437       .  S
C65          H67   1.082       .  S
N68          N69   1.325       .  A
N68          C72   1.345       .  A
N69          C70   1.347       .  A
C70          C71   1.380       .  A
C70          H73   1.082       .  S
C71          C72   1.378       .  A
C71         C106   1.438       .  S
C72          H74   1.082       .  S
C75         C103   1.469       .  S
C75         C105   1.468   1_565  S
C75         C108   1.467   1_565  S
C75         C127   1.467       .  S
C76         C101   1.468       .  S
C76         C104   1.469       .  S
C76         C109   1.467       .  S
C76         C124   1.467       .  S
N77          N78   1.323       .  A
N77          C81   1.348       .  A
N77         Cu85   2.080       .  S
N78          C79   1.343   1_554  A
N78         Cu84   2.068       .  S
C79          C80   1.378   1_556  A
C79          H82   1.082       .  S
C80          C81   1.382       .  A
C80         C120   1.437   1_554  S
C81          H83   1.082       .  S
Cu84         N87   2.068       .  S
Cu85         N95   2.081       .  S
Cu86         N88   2.076       .  S
Cu86         N94   2.077       .  S
N87          N88   1.322       .  A
N87          C91   1.343       .  A
N88          C89   1.348       .  A
C89          C90   1.382       .  A
C89          H92   1.082       .  S
C90          C91   1.378       .  A
C90         C112   1.437       .  S
C91          H93   1.082   1_554  S
N94          N95   1.325       .  A
N94          C98   1.345       .  A
N95          C96   1.347       .  A
C96          C97   1.380       .  A
C96          H99   1.082       .  S
C97          C98   1.378       .  A
C97         C102   1.438       .  S
C98         H100   1.082       .  S
C101        C102   1.207       .  T
C103        C104   1.209       .  T
C105        C106   1.207       .  T
C107        C108   1.207       .  T
C109        C110   1.207       .  T
C111        C154   1.467       .  S
C111        C112   1.207   1_556  T
C113        C175   1.438       .  S
C113        C114   1.207       .  T
C115        C116   1.207       .  T
C117        C118   1.207       .  T
C119        C248   1.207       .  T
C120        C247   1.207       .  T
C121        C122   1.209       .  T
C122        C282   1.469   1_455  S
C123        C124   1.207       .  T
C125        C126   1.207       .  T
C127        C128   1.207       .  T
N129        N130   1.323       .  A
N129        C133   1.348       .  A
N129       Cu137   2.080       .  S
N130        C131   1.343       .  A
N130       Cu392   2.068       .  S
C131        C132   1.378       .  A
C131        H134   1.082       .  S
C132        C133   1.382       .  A
C132        C251   1.437       .  S
C133        H135   1.082       .  S
Cu136       N386   2.068   1_455  S
Cu136       N139   2.068       .  S
Cu137       N403   2.081       .  S
Cu138       N140   2.076       .  S
Cu138       N146   2.077       .  S
N139        N140   1.322       .  A
N139        C143   1.343       .  A
N140        C141   1.348       .  A
C141        C142   1.382       .  A
C141        H144   1.082       .  S
C142        C143   1.378       .  A
C142        C256   1.437       .  S
C143        H145   1.082       .  S
N146        N147   1.325       .  A
N146        C150   1.345       .  A
N147        C148   1.347       .  A
N147       Cu393   2.081   1_455  S
C148        C149   1.380       .  A
C148        H407   1.082   1_455  S
C149        C150   1.378       .  A
C149        C253   1.438       .  S
C150        H152   1.082       .  S
H151        C404   1.082       .  S
C153        C245   1.467       .  S
C153        C247   1.467       .  S
C153        C249   1.469       .  S
C153        C254   1.468       .  S
C154        C242   1.468       .  S
C154        C244   1.467       .  S
C154        C506   1.469       .  S
N155        N156   1.323       .  A
N155        C159   1.348       .  A
N155       Cu163   2.080       .  S
N156        C157   1.343       .  A
N156       Cu162   2.068       .  S
C157        C158   1.378       .  A
C157        H160   1.082   1_545  S
C158        C159   1.382       .  A
C158        C235   1.437       .  S
C159        H161   1.082       .  S
Cu162       N421   2.068   1_455  S
Cu163       N173   2.081       .  S
Cu164       N166   2.076       .  S
Cu164       N172   2.077       .  S
N165        N166   1.322       .  A
N165        C169   1.343   1_545  A
N165       Cu418   2.068       .  S
N166        C167   1.348       .  A
C167        C168   1.382       .  A
C167        H170   1.082       .  S
C168        C169   1.378   1_545  A
C168        C238   1.437   1_545  S
C169        H171   1.082       .  S
N172        N429   1.325       .  A
N172        C176   1.345       .  A
N173        N428   1.325   1_455  A
N173        C174   1.347       .  A
C174        C431   1.380       .  A
C174        H177   1.082       .  S
C175        C430   1.380       .  A
C175        C176   1.378       .  A
C176        H178   1.082       .  S
N179        N180   1.323       .  A
N179        C183   1.348       .  A
N179       Cu187   2.080       .  S
N180        C181   1.343       .  A
N180       Cu186   2.068       .  S
C181        C182   1.378       .  A
C181        H184   1.082       .  S
C182        C183   1.382       .  A
C182        C243   1.437       .  S
C183        H185   1.082       .  S
Cu186       N189   2.068       .  S
Cu187       N197   2.081       .  S
Cu188       N190   2.076       .  S
Cu188       N196   2.077       .  S
N189        N190   1.322       .  A
N189        C193   1.343       .  A
N190        C191   1.348       .  A
C191        C192   1.382       .  A
C191        H194   1.082       .  S
C192        C193   1.378       .  A
C192        C246   1.437       .  S
C193        H195   1.082       .  S
N196        N197   1.325       .  A
N196        C200   1.345       .  A
N197        C198   1.347       .  A
C198        C199   1.380       .  A
C198        H201   1.082       .  S
C199        C200   1.378       .  A
C199        C234   1.438       .  S
C200        H202   1.082       .  S
C203        C231   1.469       .  S
C203        C233   1.468   1_565  S
C203        C236   1.467   1_565  S
C203        C255   1.467       .  S
C204        C229   1.468       .  S
C204        C232   1.469       .  S
C204        C237   1.467       .  S
C204        C252   1.467       .  S
N205        N206   1.323       .  A
N205        C209   1.348       .  A
N205       Cu213   2.080       .  S
N206        C207   1.343       .  A
N206       Cu212   2.068       .  S
C207        C208   1.378       .  A
C207        H210   1.082       .  S
C208        C209   1.382       .  A
C208        C248   1.437       .  S
C209        H211   1.082       .  S
Cu212       N215   2.068       .  S
Cu213       N223   2.081       .  S
Cu214       N216   2.076       .  S
Cu214       N222   2.077       .  S
N215        N216   1.322       .  A
N215        C219   1.343       .  A
N216        C217   1.348       .  A
C217        C218   1.382       .  A
C217        H220   1.082       .  S
C218        C219   1.378       .  A
C218        C240   1.437       .  S
C219        H221   1.082       .  S
N222        N223   1.325       .  A
N222        C226   1.345       .  A
N223        C224   1.347       .  A
C224        C225   1.380       .  A
C224        H227   1.082       .  S
C225        C226   1.378       .  A
C225        C230   1.438       .  S
C226        H228   1.082       .  S
C229        C230   1.207       .  T
C231        C232   1.209       .  T
C233        C234   1.207       .  T
C235        C236   1.207       .  T
C237        C238   1.207       .  T
C239        C240   1.207       .  T
C241        C242   1.207   1_554  T
C243        C244   1.207       .  T
C245        C246   1.207       .  T
C249        C250   1.209       .  T
C250        C410   1.469   1_455  S
C251        C252   1.207       .  T
C253        C254   1.207       .  T
C255        C256   1.207       .  T
N257        N258   1.323       .  A
N257        C261   1.348       .  A
N257       Cu265   2.080       .  S
N258        C259   1.343       .  A
C259        C260   1.378       .  A
C259        H262   1.082       .  S
C260        C261   1.382       .  A
C260        C379   1.437       .  S
C261        H263   1.082       .  S
Cu264       N267   2.068       .  S
Cu266       N268   2.076       .  S
Cu266       N274   2.077       .  S
N267        N268   1.322       .  A
N267        C271   1.343       .  A
N268        C269   1.348       .  A
C269        C270   1.382       .  A
C269        H272   1.082       .  S
C270        C271   1.378       .  A
C270        C384   1.437       .  S
C271        H273   1.082       .  S
N274        N275   1.325       .  A
N274        C278   1.345       .  A
N275        C276   1.347       .  A
C276        C277   1.380       .  A
C277        C278   1.378       .  A
C277        C381   1.438       .  S
C278        H280   1.082       .  S
C281        C373   1.467       .  S
C281        C375   1.467       .  S
C281        C377   1.469       .  S
C281        C382   1.468       .  S
C282        C495   1.467       .  S
C282        C370   1.468       .  S
C282        C372   1.467       .  S
N283        N284   1.323       .  A
N283        C287   1.348       .  A
N283       Cu291   2.080       .  S
N284        C285   1.343       .  A
N284       Cu290   2.068       .  S
C285        C286   1.378       .  A
C285        H288   1.082   1_545  S
C286        C287   1.382       .  A
C286        C363   1.437       .  S
C287        H289   1.082       .  S
Cu291       N301   2.081       .  S
Cu292       N294   2.076       .  S
Cu292       N300   2.077       .  S
N293        N294   1.322       .  A
N293        C297   1.343   1_545  A
N294        C295   1.348       .  A
C295        C296   1.382       .  A
C295        H298   1.082       .  S
C296        C297   1.378   1_545  A
C296        C366   1.437   1_545  S
C297        H299   1.082       .  S
N300        C304   1.345       .  A
N301        C302   1.347       .  A
C302        H305   1.082       .  S
C303        C304   1.378   1_455  A
C303        C497   1.438   1_455  S
C304        H306   1.082       .  S
N307        N308   1.323       .  A
N307        C311   1.348       .  A
N307       Cu315   2.080       .  S
N308        C309   1.343       .  A
N308       Cu314   2.068       .  S
C309        C310   1.378       .  A
C309        H312   1.082       .  S
C310        C311   1.382       .  A
C310        C371   1.437       .  S
C311        H313   1.082       .  S
Cu314       N317   2.068       .  S
Cu315       N325   2.081       .  S
Cu316       N318   2.076       .  S
Cu316       N324   2.077       .  S
N317        N318   1.322       .  A
N317        C321   1.343       .  A
N318        C319   1.348       .  A
C319        C320   1.382       .  A
C319        H322   1.082       .  S
C320        C321   1.378       .  A
C320        C374   1.437       .  S
C321        H323   1.082       .  S
N324        N325   1.325       .  A
N324        C328   1.345       .  A
N325        C326   1.347       .  A
C326        C327   1.380       .  A
C326        H329   1.082       .  S
C327        C328   1.378       .  A
C327        C362   1.438       .  S
C328        H330   1.082       .  S
C331        C359   1.469       .  S
C331        C361   1.468   1_565  S
C331        C364   1.467   1_565  S
C331        C383   1.467       .  S
C332        C357   1.468       .  S
C332        C360   1.469       .  S
C332        C365   1.467       .  S
C332        C380   1.467       .  S
N333        N334   1.323       .  A
N333        C337   1.348       .  A
N333       Cu341   2.080       .  S
N334        C335   1.343   1_554  A
N334       Cu340   2.068       .  S
C335        C336   1.378   1_556  A
C335        H338   1.082       .  S
C336        C337   1.382       .  A
C336        C376   1.437   1_554  S
C337        H339   1.082       .  S
Cu340       N343   2.068       .  S
Cu341       N351   2.081       .  S
Cu342       N344   2.076       .  S
Cu342       N350   2.077       .  S
N343        N344   1.322       .  A
N343        C347   1.343       .  A
N344        C345   1.348       .  A
C345        C346   1.382       .  A
C345        H348   1.082       .  S
C346        C347   1.378       .  A
C346        C368   1.437       .  S
C347        H349   1.082   1_554  S
N350        N351   1.325       .  A
N350        C354   1.345       .  A
N351        C352   1.347       .  A
C352        C353   1.380       .  A
C352        H355   1.082       .  S
C353        C354   1.378       .  A
C353        C358   1.438       .  S
C354        H356   1.082       .  S
C357        C358   1.207       .  T
C359        C360   1.209       .  T
C361        C362   1.207       .  T
C363        C364   1.207       .  T
C365        C366   1.207       .  T
C367        C410   1.467       .  S
C367        C368   1.207   1_556  T
C369        C431   1.438   1_655  S
C369        C370   1.207       .  T
C371        C372   1.207       .  T
C373        C374   1.207       .  T
C375        C504   1.207       .  T
C376        C503   1.207       .  T
C377        C378   1.209       .  T
C379        C380   1.207       .  T
C381        C382   1.207       .  T
C383        C384   1.207       .  T
N385        N386   1.323       .  A
N385        C389   1.348       .  A
N385       Cu393   2.080       .  S
N386        C387   1.343       .  A
C387        C388   1.378       .  A
C387        H390   1.082       .  S
C388        C389   1.382       .  A
C388        C507   1.437       .  S
C389        H391   1.082       .  S
Cu392       N395   2.068       .  S
Cu394       N396   2.076       .  S
Cu394       N402   2.077       .  S
N395        N396   1.322       .  A
N395        C399   1.343       .  A
N396        C397   1.348       .  A
C397        C398   1.382       .  A
C397        H400   1.082       .  S
C398        C399   1.378       .  A
C398        C512   1.437       .  S
C399        H401   1.082       .  S
N402        N403   1.325       .  A
N402        C406   1.345       .  A
N403        C404   1.347       .  A
C404        C405   1.380       .  A
C405        C406   1.378       .  A
C405        C509   1.438       .  S
C406        H408   1.082       .  S
C409        C501   1.467       .  S
C409        C503   1.467       .  S
C409        C505   1.469       .  S
C409        C510   1.468       .  S
C410        C498   1.468       .  S
C410        C500   1.467       .  S
N411        N412   1.323       .  A
N411        C415   1.348       .  A
N411       Cu419   2.080       .  S
N412        C413   1.343       .  A
N412       Cu418   2.068       .  S
C413        C414   1.378       .  A
C413        H416   1.082   1_545  S
C414        C415   1.382       .  A
C414        C491   1.437       .  S
C415        H417   1.082       .  S
Cu419       N429   2.081       .  S
Cu420       N422   2.076       .  S
Cu420       N428   2.077       .  S
N421        N422   1.322       .  A
N421        C425   1.343   1_545  A
N422        C423   1.348       .  A
C423        C424   1.382       .  A
C423        H426   1.082       .  S
C424        C425   1.378   1_545  A
C424        C494   1.437   1_545  S
C425        H427   1.082       .  S
N428        C432   1.345       .  A
N429        C430   1.347       .  A
C430        H433   1.082       .  S
C431        C432   1.378   1_455  A
C432        H434   1.082       .  S
N435        N436   1.323       .  A
N435        C439   1.348       .  A
N435       Cu443   2.080       .  S
N436        C437   1.343       .  A
N436       Cu442   2.068       .  S
C437        C438   1.378       .  A
C437        H440   1.082       .  S
C438        C439   1.382       .  A
C438        C499   1.437       .  S
C439        H441   1.082       .  S
Cu442       N445   2.068       .  S
Cu443       N453   2.081       .  S
Cu444       N446   2.076       .  S
Cu444       N452   2.077       .  S
N445        N446   1.322       .  A
N445        C449   1.343       .  A
N446        C447   1.348       .  A
C447        C448   1.382       .  A
C447        H450   1.082       .  S
C448        C449   1.378       .  A
C448        C502   1.437       .  S
C449        H451   1.082       .  S
N452        N453   1.325       .  A
N452        C456   1.345       .  A
N453        C454   1.347       .  A
C454        C455   1.380       .  A
C454        H457   1.082       .  S
C455        C456   1.378       .  A
C455        C490   1.438       .  S
C456        H458   1.082       .  S
C459        C487   1.469       .  S
C459        C489   1.468   1_565  S
C459        C492   1.467   1_565  S
C459        C511   1.467       .  S
C460        C485   1.468       .  S
C460        C488   1.469       .  S
C460        C493   1.467       .  S
C460        C508   1.467       .  S
N461        N462   1.323       .  A
N461        C465   1.348       .  A
N461       Cu469   2.080       .  S
N462        C463   1.343       .  A
N462       Cu468   2.068       .  S
C463        C464   1.378       .  A
C463        H466   1.082       .  S
C464        C465   1.382       .  A
C464        C504   1.437       .  S
C465        H467   1.082       .  S
Cu468       N471   2.068       .  S
Cu469       N479   2.081       .  S
Cu470       N472   2.076       .  S
Cu470       N478   2.077       .  S
N471        N472   1.322       .  A
N471        C475   1.343       .  A
N472        C473   1.348       .  A
C473        C474   1.382       .  A
C473        H476   1.082       .  S
C474        C475   1.378       .  A
C474        C496   1.437       .  S
C475        H477   1.082       .  S
N478        N479   1.325       .  A
N478        C482   1.345       .  A
N479        C480   1.347       .  A
C480        C481   1.380       .  A
C480        H483   1.082       .  S
C481        C482   1.378       .  A
C481        C486   1.438       .  S
C482        H484   1.082       .  S
C485        C486   1.207       .  T
C487        C488   1.209       .  T
C489        C490   1.207       .  T
C491        C492   1.207       .  T
C493        C494   1.207       .  T
C495        C496   1.207       .  T
C497        C498   1.207   1_554  T
C499        C500   1.207       .  T
C501        C502   1.207       .  T
C505        C506   1.209       .  T
C507        C508   1.207       .  T
C509        C510   1.207       .  T
C511        C512   1.207       .  T
