geometry optimzed in LAMMPS
_audit_creation_date              2020-11-30 
_audit_creation_method            'lammps2cif' 
_symmetry_space_group_name_H-M    'P1' 
_symmetry_Int_Tables_number       1 
_symmetry_cell_setting            triclinic 
loop_ 
_symmetry_equiv_pos_as_xyz 
  x,y,z 
_cell_length_a                    45.04989171 
_cell_length_b                    44.197737201135716 
_cell_length_c                    44.83291552656426 
_cell_angle_alpha                 90.53426172499381 
_cell_angle_beta                  89.74750976740444 
_cell_angle_gamma                 90.29367673847031 
loop_ 
_atom_site_label 
_atom_site_type_symbol 
_atom_site_fract_x 
_atom_site_fract_y 
_atom_site_fract_z 
_atom_site_charge 
O1          O  0.54309619  0.97521523  0.48997396    -0.80700
O2          O  0.42269191  0.98386156  0.52952249    -0.80700
O3          O  0.50208471  0.95629894  0.54012267    -0.80800
O4          O  0.48992945  0.95997995  0.45722519    -0.80700
O5          O  0.46941562  0.98237574  0.56673854    -0.80800
O6          O  0.51756732  0.99631253  0.44099449    -0.80700
O7          O  0.44227066  0.95219478  0.49633764    -0.80700
O8          O  0.55972084  0.97978954  0.53588433    -0.80800
C9          C  0.56325433  0.96985705  0.50937429     1.09000
C10         C  0.42354064  0.95814342  0.51677153     1.08900
C11         C  0.48631800  0.95928106  0.56346308     1.09000
C12         C  0.50492845  0.97117630  0.43619921     1.08900
O13         O  0.49777369  0.05007604  0.46918864    -0.80700
O14         O  0.48332359  0.04516293  0.55122460    -0.80800
O15         O  0.54099644  0.03518015  0.51834851    -0.80700
O16         O  0.42007439  0.00961271  0.47924834    -0.80700
O17         O  0.43431270  0.04469613  0.51167644    -0.80800
O18         O  0.55744346  0.03198418  0.47230105    -0.80700
O19         O  0.46748315  0.02043296  0.44292371    -0.80700
O20         O  0.51573335  0.01314119  0.56758884    -0.80800
Co21       Co  0.51942875  0.01428484  0.48234162     1.51500
Co22       Co  0.45430991  0.01430347  0.53785769     1.51700
Co23       Co  0.52031064  0.99416832  0.52653403     1.51600
Co24       Co  0.45675414  0.98572974  0.47078729     1.51500
O25         O  0.48211670  0.00209651  0.50438156    -1.42700
C26         C  0.48211761  0.04528538  0.44611686     1.08900
C27         C  0.50006763  0.03655709  0.57203762     1.09000
C28         C  0.56127320  0.04104309  0.49895714     1.08900
C29         C  0.41609310  0.03496654  0.49209438     1.08900
O30         O  0.96310478  0.53486522  0.49153184    -0.80700
O31         O  0.97105482  0.45276182  0.47466107    -0.80700
O32         O  0.98403540  0.50474156  0.43152274    -0.80800
O33         O  0.00273734  0.46687403  0.55589110    -0.80700
O34         O  0.99395677  0.45851328  0.41654631    -0.80800
O35         O  0.96478760  0.49335034  0.53950231    -0.80700
O36         O  0.00021354  0.43038039  0.50774697    -0.80700
O37         O  0.99494869  0.55641358  0.46181019    -0.80800
C38         C  0.97066795  0.55764316  0.47632213     1.09000
C39         C  0.97611770  0.43122899  0.49244972     1.08900
C40         C  0.98328608  0.48432899  0.41075486     1.09000
C41         C  0.97596639  0.47526148  0.55824899     1.08900
O42         O  0.02023456  0.52071872  0.55699338    -0.80700
O43         O  0.04485020  0.48536428  0.43578165    -0.80800
O44         O  0.05223324  0.53708188  0.48070022    -0.80700
O45         O  0.05893759  0.45549233  0.48923487    -0.80700
O46         O  0.02868582  0.43192259  0.46034063    -0.80800
O47         O  0.01994695  0.55891076  0.51136424    -0.80700
O48         O  0.05730955  0.49398200  0.53801117    -0.80700
O49         O  0.03633948  0.53178203  0.42047046    -0.80800
Co50       Co  0.99201146  0.52502582  0.52289367     1.51500
Co51       Co  0.00592483  0.47104488  0.45619305     1.51700
Co52       Co  0.01969318  0.51856051  0.45784394     1.51600
Co53       Co  0.02972440  0.46328854  0.52088931     1.51500
O54         O  0.01081724  0.49438762  0.49485157    -1.42700
C55         C  0.04731621  0.51282056  0.55704440     1.08900
C56         C  0.04857147  0.50618594  0.41622704     1.09000
C57         C  0.04460464  0.55924778  0.49712627     1.08900
C58         C  0.05266454  0.43184015  0.47491575     1.08900
O59         O  0.44294430  0.52696704  0.01294447    -0.80700
O60         O  0.56740576  0.49456291  0.02269845    -0.80700
O61         O  0.51164943  0.46045249  0.04702682    -0.80800
O62         O  0.52714232  0.54351492  0.03426171    -0.80700
O63         O  0.54142865  0.44013839  0.01469471    -0.80800
O64         O  0.49134204  0.56617895  0.00953416    -0.80700
O65         O  0.58118305  0.53848103  0.00486290    -0.80700
O66         O  0.46187548  0.49815534  0.04789109    -0.80800
C67         C  0.44148157  0.51531489  0.03857591     1.09000
C68         C  0.58722027  0.51551643  0.02027539     1.08900
C69         C  0.52771781  0.43840479  0.03929929     1.09000
C70         C  0.51100058  0.56649056  0.03039578     1.08900
O71         O  0.50163003  0.53984028  0.94887547    -0.80700
O72         O  0.51869995  0.45450209  0.95790112    -0.80800
O73         O  0.44232993  0.47015994  0.99384871    -0.80700
O74         O  0.55828236  0.50780554  0.95761307    -0.80700
O75         O  0.57792049  0.46452176  0.97094129    -0.80800
O76         O  0.45442390  0.50060040  0.95670353    -0.80700
O77         O  0.53485668  0.56253188  0.97476349    -0.80700
O78         O  0.49061418  0.43245474  0.99182558    -0.80800
Co79       Co  0.47459663  0.53157533  0.98239501     1.51500
Co80       Co  0.54107962  0.47695938  0.98873575     1.51700
Co81       Co  0.47844276  0.46749636  0.01948527     1.51600
Co82       Co  0.54150042  0.52403391  0.99764387     1.51500
O83         O  0.50303528  0.49980313  0.99805129    -1.42700
C84         C  0.51703196  0.56315487  0.95319565     1.08900
C85         C  0.50539246  0.43108572  0.96737980     1.09000
C86         C  0.43748362  0.48056166  0.96799332     1.08900
C87         C  0.57879065  0.48779913  0.95456988     1.08900
C88         C  0.56240956  0.93349257  0.77071088     0.79600
N89         N  0.58764520  0.91687605  0.76806696    -0.78700
C90         C  0.59408489  0.90233809  0.74191907     0.82100
N91         N  0.57508399  0.90459210  0.71854539    -0.78600
C92         C  0.54964074  0.92083232  0.72104023     0.82200
N93         N  0.54343147  0.93506389  0.74729852    -0.80300
C94         C  0.76183522  0.75493360  0.72242877     0.79600
N95         N  0.74229364  0.77813860  0.72625791    -0.78700
C96         C  0.72055923  0.77648666  0.74744947     0.82100
N97         N  0.71850723  0.75145732  0.76472985    -0.78600
C98         C  0.73758287  0.72803113  0.76104258     0.82200
N99         N  0.75916865  0.72997766  0.73983478    -0.80300
C100        C  0.92915968  0.75596046  0.57160730     0.79600
N101        N  0.93197280  0.72995841  0.55511587    -0.78700
C102        C  0.91424338  0.70558299  0.56051131     0.82100
N103        N  0.89370882  0.70745608  0.58266584    -0.78600
C104        C  0.89027071  0.73304520  0.59926226     0.82200
N105        N  0.90808057  0.75737357  0.59362270    -0.80300
C106        C  0.78584086  0.55072815  0.88955730     0.79600
N107        N  0.76164665  0.53724601  0.90186487    -0.78700
C108        C  0.73390460  0.54414003  0.89217093     0.82100
N109        N  0.73063798  0.56548311  0.87064063    -0.78600
C110        C  0.75488837  0.57895621  0.85826558     0.82200
N111        N  0.78233249  0.57116402  0.86759124    -0.80300
C112        C  0.30078014  0.23245964  0.71970209     0.79600
N113        N  0.27850807  0.22993727  0.69958866    -0.78700
C114        C  0.25780371  0.25198413  0.69694809     0.82100
N115        N  0.25963465  0.27703048  0.71492912    -0.78600
C116        C  0.28218426  0.27992692  0.73503376     0.82200
N117        N  0.30244108  0.25744387  0.73731405    -0.80300
C118        C  0.28082553  0.41423812  0.91340678     0.79600
N119        N  0.28198182  0.40254283  0.88523554    -0.78700
C120        C  0.25716577  0.39091897  0.87221687     0.82100
N121        N  0.23118045  0.39105691  0.88765117    -0.78600
C122        C  0.22956028  0.40251079  0.91582159     0.82200
N123        N  0.25455904  0.41403051  0.92865500    -0.80300
C124        C  0.43453168  0.06349373  0.78987649     0.79600
N125        N  0.45023509  0.05375828  0.76529922    -0.78700
C126        C  0.44932746  0.06984122  0.73935688     0.82100
N127        N  0.43228379  0.09497692  0.73832847    -0.78600
C128        C  0.41672352  0.10478889  0.76229991     0.82200
N129        N  0.41804598  0.08913013  0.78807568    -0.80300
C130        C  0.08002991  0.22407832  0.56389839     0.79600
N131        N  0.07365814  0.24785653  0.54607257    -0.78700
C132        C  0.08949488  0.27397643  0.54750619     0.82100
N133        N  0.11190025  0.27642743  0.56754458    -0.78600
C134        C  0.11890278  0.25290471  0.58551956     0.82200
N135        N  0.10302516  0.22656006  0.58351478    -0.80300
O136        O  0.52153183  0.98564768  0.94630162    -0.80700
O137        O  0.52544011  0.01832423  0.08031635    -0.80700
O138        O  0.56050877  0.03019664  0.00328168    -0.80800
O139        O  0.55905555  0.97111835  0.02299741    -0.80700
O140        O  0.53823308  0.05983640  0.03564564    -0.80800
O141        O  0.53331812  0.94397394  0.99092729    -0.80700
O142        O  0.54273182  0.97098154  0.08296769    -0.80700
O143        O  0.54345166  0.03122121  0.94412536    -0.80800
C144        C  0.53742977  0.00557277  0.93220539     1.09000
C145        C  0.53985890  0.99746005  0.09426472     1.08900
C146        C  0.56039267  0.05435012  0.01874661     1.09000
C147        C  0.55664479  0.94768477  0.00655521     1.08900
O148        O  0.47277861  0.94798902  0.01247619    -0.80700
O149        O  0.47679641  0.06031490  0.01747304    -0.80800
O150        O  0.48567160  0.02860434  0.95709380    -0.80700
O151        O  0.48571442  0.97782071  0.07142217    -0.80700
O152        O  0.46314113  0.02013379  0.06220094    -0.80800
O153        O  0.46012010  0.98806431  0.96741353    -0.80700
O154        O  0.50943795  0.93504887  0.04107729    -0.80700
O155        O  0.51309892  0.07006412  0.98657369    -0.80800
Co156      Co  0.49686032  0.96894217  0.98205100     1.51500
Co157      Co  0.50058487  0.03708475  0.04620492     1.51700
Co158      Co  0.52320720  0.02542411  0.98100994     1.51600
Co159      Co  0.52262223  0.97868016  0.04647535     1.51500
O160        O  0.50431950  0.00278292  0.01402431    -1.42700
C161        C  0.48587957  0.92783365  0.02718368     1.08900
C162        C  0.49043564  0.07906573  0.00117597     1.09000
C163        C  0.46278503  0.01252353  0.95348846     1.08900
C164        C  0.46418608  0.99531224  0.07560756     1.08900
C165        C  0.28517438  0.74319902  0.78064082     0.79600
N166        N  0.28542775  0.76785340  0.76244363    -0.78700
C167        C  0.26540369  0.77007127  0.73983346     0.82100
N168        N  0.24551193  0.74737948  0.73543899    -0.78600
C169        C  0.24497575  0.72277148  0.75318892     0.82200
N170        N  0.26474235  0.72084487  0.77587245    -0.80300
C171        C  0.44980958  0.72688848  0.93150363     0.79600
N172        N  0.42852335  0.72722689  0.90986997    -0.78700
C173        C  0.41136662  0.75210068  0.90611912     0.82100
N174        N  0.41531466  0.77629219  0.92431234    -0.78600
C175        C  0.43587419  0.77644564  0.94626072     0.82200
N176        N  0.45340827  0.75169015  0.94966522    -0.80300
C177        C  0.21542596  0.93169779  0.58538610     0.79600
N178        N  0.21446770  0.91110995  0.60787026    -0.78700
C179        C  0.23917954  0.89492969  0.61488821     0.82100
N180        N  0.26463583  0.89921635  0.59909359    -0.78600
C181        C  0.26565770  0.91911438  0.57626858     0.82200
N182        N  0.24105001  0.93524603  0.56968634    -0.80300
C183        C  0.07592048  0.56857251  0.77071968     0.79600
N184        N  0.07240713  0.55620577  0.74310389    -0.78700
C185        C  0.08927615  0.56536982  0.71964107     0.82100
N186        N  0.11016097  0.58724729  0.72393944    -0.78600
C187        C  0.11448816  0.59953222  0.75158118     0.82200
N188        N  0.09728291  0.59008077  0.77486250    -0.80300
C189        C  0.73430038  0.30316371  0.25835009     0.79600
N190        N  0.71310638  0.28137130  0.25672018    -0.78700
C191        C  0.71204534  0.25851412  0.27662853     0.82100
N192        N  0.73257953  0.25760758  0.29871263    -0.78600
C193        C  0.75395110  0.27943380  0.30079237     0.82200
N194        N  0.75484775  0.30209149  0.28037920    -0.80300
C195        C  0.91555583  0.26932107  0.45049251     0.79600
N196        N  0.89050906  0.27020110  0.43375460    -0.78700
C197        C  0.88096304  0.24517307  0.41866645     0.82100
N198        N  0.89690606  0.21920507  0.42015909    -0.78600
C199        C  0.92223367  0.21819182  0.43643880     0.82200
N200        N  0.93129779  0.24329886  0.45152928    -0.80300
C201        C  0.78038361  0.42337723  0.07235250     0.79600
N202        N  0.75499475  0.43872813  0.06578585    -0.78700
C203        C  0.73214022  0.43994456  0.08573989     0.82100
N204        N  0.73492053  0.42570845  0.11220157    -0.78600
C205        C  0.75996333  0.41060604  0.11928279     0.82200
N206        N  0.78269509  0.40946986  0.09926299    -0.80300
C207        C  0.57456964  0.08491322  0.24537045     0.79600
N208        N  0.55611011  0.07629554  0.26783787    -0.78700
C209        C  0.55783552  0.08983059  0.29520031     0.82100
N210        N  0.57869526  0.11163749  0.30007177    -0.78600
C211        C  0.59722871  0.12040955  0.27781088     0.82200
N212        N  0.59481605  0.10723526  0.25044749    -0.80300
O213        O  0.93949527  0.48554393  0.95568184    -0.80700
O214        O  0.05828352  0.50752487  0.99898517    -0.80700
O215        O  0.99855649  0.52134213  0.03026668    -0.80800
O216        O  0.01838957  0.51870502  0.94778526    -0.80700
O217        O  0.02900926  0.48976379  0.04969856    -0.80800
O218        O  0.98859518  0.48959279  0.92081814    -0.80700
O219        O  0.07617208  0.49840264  0.95407863    -0.80700
O220        O  0.95342817  0.52083932  0.98815126    -0.80800
C221        C  0.93661477  0.51159518  0.96731158     1.09000
C222        C  0.07953220  0.51022394  0.97971892     1.08900
C223        C  0.01280139  0.51287635  0.05277558     1.09000
C224        C  0.00437921  0.51373854  0.92381581     1.08900
O225        O  0.00502244  0.42865121  0.94114995    -0.80700
O226        O  0.01505053  0.43208193  0.02518531    -0.80800
O227        O  0.93611296  0.46275702  0.00798203    -0.80700
O228        O  0.06066966  0.44484445  0.97793198    -0.80700
O229        O  0.07280077  0.45479307  0.02448444    -0.80800
O230        O  0.95453778  0.42752180  0.97791198    -0.80700
O231        O  0.03627736  0.46154766  0.92461779    -0.80700
O232        O  0.98117356  0.46018045  0.04790989    -0.80800
Co233      Co  0.97372192  0.45798813  0.95101502     1.51500
Co234      Co  0.03520485  0.46827728  0.01010744     1.51700
Co235      Co  0.96939486  0.49103334  0.01660307     1.51600
Co236      Co  0.03765373  0.48313383  0.96456155     1.51500
O237        O  0.99842229  0.47493238  0.98532362    -1.42700
C238        C  0.02117302  0.43774406  0.92004671     1.08900
C239        C  0.99826854  0.43707499  0.04742284     1.09000
C240        C  0.93504945  0.43647422  0.99658878     1.08900
C241        C  0.07962223  0.44328978  0.99939346     1.08900
C242        C  0.20689257  0.06058168  0.41096196     0.79600
N243        N  0.23136848  0.05407009  0.42740408    -0.78700
C244        C  0.25700446  0.07046087  0.42445122     0.82100
N245        N  0.25798271  0.09354993  0.40453514    -0.78600
C246        C  0.23373163  0.10047764  0.38794646     0.82200
N247        N  0.20833742  0.08398521  0.39143841    -0.80300
C248        C  0.26308470  0.23852639  0.27633225     0.79600
N249        N  0.23988577  0.25806964  0.27649624    -0.78700
C250        C  0.23921112  0.28178186  0.25743182     0.82100
N251        N  0.26210973  0.28601952  0.23801610    -0.78600
C252        C  0.28560616  0.26679105  0.23773038     0.82200
N253        N  0.28588191  0.24306130  0.25687941    -0.80300
C254        C  0.06362333  0.41792812  0.20818269     0.79600
N255        N  0.05902551  0.43586469  0.23258454    -0.78700
C256        C  0.07667630  0.43367916  0.25702679     0.82100
N257        N  0.09906322  0.41310535  0.25689037    -0.78600
C258        C  0.10412560  0.39525015  0.23253819     0.82200
N259        N  0.08640980  0.39790552  0.20828553    -0.80300
C260        C  0.43971855  0.23424849  0.07409997     0.79600
N261        N  0.45478420  0.26085492  0.06950909    -0.78700
C262        C  0.44925254  0.28534305  0.08775915     0.82100
N263        N  0.42900501  0.28275965  0.11019269    -0.78600
C264        C  0.41445911  0.25650797  0.11512468     0.82200
N265        N  0.41998719  0.23255968  0.09706415    -0.80300
C266        C  0.76236003  0.26240550  0.74954880     0.79600
N267        N  0.74024940  0.26625539  0.76989832    -0.78700
C268        C  0.71590135  0.24805684  0.76963343     0.82100
N269        N  0.71386383  0.22555922  0.74882011    -0.78600
C270        C  0.73574573  0.22147954  0.72810861     0.82200
N271        N  0.75998378  0.24003481  0.72863415    -0.80300
C272        C  0.94035809  0.40131773  0.71504945     0.79600
N273        N  0.95425345  0.40473767  0.74196692    -0.78700
C274        C  0.94531727  0.38816046  0.76598345     0.82100
N275        N  0.92233930  0.36835392  0.76269117    -0.78600
C276        C  0.90849558  0.36461187  0.73608515     0.82200
N277        N  0.91765547  0.38114214  0.71244068    -0.80300
C278        C  0.57210847  0.26542727  0.94035317     0.79600
N279        N  0.57255703  0.24143025  0.95943500    -0.78700
C280        C  0.58843657  0.21597603  0.95262828     0.82100
N281        N  0.60356051  0.21472600  0.92639021    -0.78600
C282        C  0.60357439  0.23836005  0.90725337     0.82200
N283        N  0.58795749  0.26368893  0.91441788    -0.80300
C284        C  0.72270302  0.06642742  0.56453303     0.79600
N285        N  0.74654255  0.04836068  0.55906926    -0.78700
C286        C  0.77173661  0.05109635  0.57552808     0.82100
N287        N  0.77302675  0.07265102  0.59739593    -0.78600
C288        C  0.74937533  0.09084709  0.60328875     0.82200
N289        N  0.72420812  0.08746419  0.58688195    -0.80300
C290        C  0.73136874  0.74378967  0.23329543     0.79600
N291        N  0.75327249  0.72258466  0.23416680    -0.78700
C292        C  0.77531942  0.72432319  0.25478108     0.82100
N293        N  0.77540848  0.74775408  0.27455378    -0.78600
C294        C  0.75392927  0.76924959  0.27421408     0.82200
N295        N  0.73180528  0.76718220  0.25351699    -0.80300
C296        C  0.72044603  0.92828204  0.43916574     0.79600
N297        N  0.74666773  0.94276420  0.44374085    -0.78700
C298        C  0.77093963  0.93651772  0.42670055     0.82100
N299        N  0.76883511  0.91503666  0.40470332    -0.78600
C300        C  0.74253611  0.90036211  0.39957080     0.82200
N301        N  0.71853811  0.90725756  0.41690417    -0.80300
C302        C  0.93201934  0.56398050  0.20520889     0.79600
N303        N  0.90995748  0.58481940  0.20666845    -0.78700
C304        C  0.89894274  0.59495178  0.23308000     0.82100
N305        N  0.91035294  0.58386296  0.25872671    -0.78600
C306        C  0.93212015  0.56245391  0.25809062     0.82200
N307        N  0.94306428  0.55256081  0.23117005    -0.80300
C308        C  0.58865116  0.78235368  0.06213932     0.79600
N309        N  0.57281626  0.75680200  0.05532566    -0.78700
C310        C  0.57467169  0.73152220  0.07255263     0.82100
N311        N  0.59287791  0.73204635  0.09687647    -0.78600
C312        C  0.60846083  0.75759511  0.10426710     0.82200
N313        N  0.60607200  0.78249308  0.08682727    -0.80300
C314        C  0.23528430  0.74312030  0.26831092     0.79600
N315        N  0.25508769  0.76584351  0.26419691    -0.78700
C316        C  0.27730203  0.76341225  0.24391340     0.82100
N317        N  0.27973101  0.73767233  0.22744387    -0.78600
C318        C  0.26003370  0.71458868  0.23112176     0.82200
N319        N  0.23774139  0.71737904  0.25160630    -0.80300
C320        C  0.42522239  0.92651387  0.28571130     0.79600
N321        N  0.40159827  0.90749059  0.28392873    -0.78700
C322        C  0.38654319  0.90366707  0.25823569     0.82100
N323        N  0.39494587  0.91913341  0.23375267    -0.78600
C324        C  0.41803028  0.93899515  0.23496335     0.82200
N325        N  0.43336338  0.94263522  0.26109223    -0.80300
C326        C  0.07944398  0.71853424  0.43216907     0.79600
N327        N  0.10082054  0.71535530  0.41098795    -0.78700
C328        C  0.10776821  0.73850133  0.39254608     0.82100
N329        N  0.09314058  0.76522499  0.39550671    -0.78600
C330        C  0.07131149  0.76855002  0.41636135     0.82200
N331        N  0.06458052  0.74508086  0.43454207    -0.80300
C332        C  0.27335554  0.54872836  0.08137693     0.79600
N333        N  0.27208824  0.56621388  0.10648020    -0.78700
C334        C  0.24592123  0.57768325  0.11629049     0.82100
N335        N  0.22095643  0.57171665  0.10069426    -0.78600
C336        C  0.22149298  0.55466670  0.07542519     0.82200
N337        N  0.24789669  0.54320372  0.06561857    -0.80300
O338        O  0.98491602  0.93604836  0.53980993    -0.80700
O339        O  0.02232640  0.05860263  0.51264109    -0.80700
O340        O  0.03528725  0.97938686  0.54851777    -0.80800
O341        O  0.95424882  0.99443156  0.55177653    -0.80700
O342        O  0.05928488  0.01068520  0.51834838    -0.80800
O343        O  0.93305849  0.96256526  0.52222990    -0.80700
O344        O  0.99282921  0.04333270  0.54909331    -0.80700
O345        O  0.02973683  0.91897627  0.53014923    -0.80800
C346        C  0.00470589  0.91535942  0.54278863     1.09000
C347        C  0.01220732  0.06148861  0.53890981     1.08900
C348        C  0.05788046  0.99553222  0.54264888     1.09000
C349        C  0.93138000  0.97951645  0.54513274     1.08900
O350        O  0.95658336  0.97473056  0.46424528    -0.80700
O351        O  0.03937700  0.98917388  0.45930220    -0.80800
O352        O  0.00566847  0.93300467  0.47688786    -0.80700
O353        O  0.97008439  0.05661801  0.49131404    -0.80700
O354        O  0.99996553  0.03700193  0.45695204    -0.80800
O355        O  0.96042923  0.91719068  0.48774028    -0.80700
O356        O  0.93255007  0.00878184  0.49128288    -0.80700
O357        O  0.05826293  0.96019169  0.49242926    -0.80800
Co358      Co  0.97257076  0.95690384  0.50051583     1.51500
Co359      Co  0.02832493  0.02200246  0.48710023     1.51700
Co360      Co  0.01857488  0.95758811  0.51418930     1.51600
Co361      Co  0.96421682  0.02398084  0.52087863     1.51500
O362        O  0.99609731  0.99582164  0.50539642    -1.42700
C363        C  0.93389256  0.99096309  0.46850244     1.08900
C364        C  0.06140483  0.97444697  0.46818623     1.09000
C365        C  0.98515766  0.91264970  0.47475067     1.08900
C366        C  0.98059468  0.05612736  0.46504954     1.08900
C367        C  0.99207381  0.88396022  0.45911201    -0.05800
C368        C  0.97668628  0.85720568  0.46609149    -0.05800
C369        C  0.98800812  0.82904385  0.45723423    -0.23900
C370        C  0.01496148  0.82728194  0.44143952     0.18300
C371        C  0.02954728  0.85418750  0.43280554     0.15500
C372        C  0.01790272  0.88225212  0.44145688    -0.19000
C373        C  0.05636436  0.85264623  0.41690869    -0.20800
C374        C  0.06931128  0.82468457  0.41059341    -0.13300
C375        C  0.05581572  0.79777990  0.42026593     0.03300
C376        C  0.02821588  0.79920923  0.43515949    -0.25500
H377        H  0.95698387  0.85791468  0.48001795     0.08400
H378        H  0.97640930  0.80865774  0.46388338     0.12000
H379        H  0.02998024  0.90273172  0.43592667     0.11900
H380        H  0.06774511  0.87309911  0.41007666     0.11700
H381        H  0.09050760  0.82421867  0.39908583     0.12200
H382        H  0.01741456  0.77859390  0.44246725     0.14200
C383        C  0.24459433  0.59864426  0.14212010    -0.05800
C384        C  0.21712097  0.60540817  0.15560831    -0.05800
C385        C  0.21497460  0.62809172  0.17736974    -0.23900
C386        C  0.24019172  0.64472885  0.18570960     0.18300
C387        C  0.26806183  0.63748885  0.17292224     0.15500
C388        C  0.27017638  0.61416080  0.15162138    -0.19000
C389        C  0.29316324  0.65457885  0.18066300    -0.20800
C390        C  0.29051190  0.67930938  0.20002820    -0.13300
C391        C  0.26284256  0.68703588  0.21247888     0.03300
C392        C  0.23782914  0.66918510  0.20575735    -0.25500
H393        H  0.19709802  0.59361695  0.14884129     0.08400
H394        H  0.19345243  0.63325191  0.18695659     0.12000
H395        H  0.29143593  0.60928311  0.14130095     0.11900
H396        H  0.31468520  0.64934243  0.17111865     0.11700
H397        H  0.31015549  0.69259077  0.20509329     0.12200
H398        H  0.21636486  0.67509625  0.21505453     0.14200
C399        C  0.21172179  0.74686131  0.29114435    -0.05800
C400        C  0.20543293  0.77591541  0.30260381    -0.05800
C401        C  0.18377149  0.78005347  0.32453997    -0.23900
C402        C  0.16809296  0.75519139  0.33570802     0.18300
C403        C  0.17447334  0.72579573  0.32475631     0.15500
C404        C  0.19606253  0.72181918  0.30235009    -0.19000
C405        C  0.15921820  0.70088690  0.33652165    -0.20800
C406        C  0.13774802  0.70508681  0.35874385    -0.13300
C407        C  0.13084310  0.73429292  0.36933601     0.03300
C408        C  0.14616934  0.75928513  0.35767950    -0.25500
H409        H  0.21716777  0.79565258  0.29447451     0.08400
H410        H  0.17932854  0.80270086  0.33278966     0.12000
H411        H  0.20094830  0.69928936  0.29401812     0.11900
H412        H  0.16387888  0.67818383  0.32856118     0.11700
H413        H  0.12621084  0.68544172  0.36735069     0.12200
H414        H  0.14130033  0.78184963  0.36593342     0.14200
C415        C  0.29881519  0.78848486  0.24060461    -0.05800
C416        C  0.32050052  0.78814252  0.21795153    -0.05800
C417        C  0.34111032  0.81178387  0.21567554    -0.23900
C418        C  0.34052876  0.83588600  0.23624245     0.18300
C419        C  0.31874989  0.83634904  0.25903661     0.15500
C420        C  0.29795008  0.81293618  0.26082900    -0.19000
C421        C  0.31855997  0.85980631  0.28025998    -0.20800
C422        C  0.34040728  0.88217129  0.27949658    -0.13300
C423        C  0.36210624  0.88185230  0.25701785     0.03300
C424        C  0.36182373  0.85907528  0.23503660    -0.25500
H425        H  0.32161059  0.76958038  0.20204174     0.08400
H426        H  0.35773313  0.81099384  0.19816962     0.12000
H427        H  0.28149054  0.81351801  0.27853690     0.11900
H428        H  0.30203383  0.86039396  0.29787368     0.11700
H429        H  0.34056545  0.89964942  0.29662553     0.12200
H430        H  0.37896084  0.85865232  0.21799198     0.14200
C431        C  0.79918545  0.95321097  0.43269201    -0.05800
C432        C  0.79885718  0.97916536  0.45120239    -0.05800
C433        C  0.82514296  0.99407664  0.45901152    -0.23900
C434        C  0.85253218  0.98317920  0.44888397     0.18300
C435        C  0.85325997  0.95783674  0.42938905     0.15500
C436        C  0.82659641  0.94313278  0.42119783    -0.19000
C437        C  0.88074861  0.94692405  0.41939942    -0.20800
C438        C  0.90715926  0.95972751  0.43008142    -0.13300
C439        C  0.90672737  0.98376733  0.45098662     0.03300
C440        C  0.87918334  0.99619265  0.45927671    -0.25500
H441        H  0.77816247  0.98785156  0.46014051     0.08400
H442        H  0.82408403  0.01359189  0.47375351     0.12000
H443        H  0.82732445  0.92327828  0.40688969     0.11900
H444        H  0.88186027  0.92766098  0.40436045     0.11700
H445        H  0.92794591  0.94949520  0.42328870     0.12200
H446        H  0.87835604  0.01452030  0.47547543     0.14200
C447        C  0.62807731  0.75883628  0.13101047    -0.05800
C448        C  0.63233049  0.78644984  0.14635348    -0.05800
C449        C  0.65213230  0.78874048  0.17030265    -0.23900
C450        C  0.66874388  0.76361418  0.17911912     0.18300
C451        C  0.66459395  0.73566541  0.16402474     0.15500
C452        C  0.64392513  0.73328804  0.14046398    -0.19000
C453        C  0.68179675  0.71077532  0.17224219    -0.20800
C454        C  0.70316161  0.71358883  0.19472957    -0.13300
C455        C  0.70763150  0.74121986  0.21005351     0.03300
C456        C  0.68989945  0.76613786  0.20225034    -0.25500
H457        H  0.62033451  0.80643950  0.13971777     0.08400
H458        H  0.65490833  0.81038519  0.18152063     0.12000
H459        H  0.64109430  0.71192228  0.12871924     0.11900
H460        H  0.67907446  0.68917063  0.16093213     0.11700
H461        H  0.71625315  0.69392569  0.20013853     0.12200
H462        H  0.69310127  0.78767996  0.21354926     0.14200
C463        C  0.79932953  0.70117459  0.25570956    -0.05800
C464        C  0.81726750  0.69841447  0.28120851    -0.05800
C465        C  0.83995032  0.67684645  0.28229826    -0.23900
C466        C  0.84554648  0.65775125  0.25774989     0.18300
C467        C  0.82796047  0.66058359  0.23187578     0.15500
C468        C  0.80486730  0.68195919  0.23111589    -0.19000
C469        C  0.83387972  0.64210909  0.20703504    -0.20800
C470        C  0.85691797  0.62107400  0.20769452    -0.13300
C471        C  0.87445619  0.61759566  0.23334061     0.03300
C472        C  0.86848577  0.63605882  0.25847986    -0.25500
H473        H  0.81362246  0.71280986  0.30052557     0.08400
H474        H  0.85320098  0.67521547  0.30232359     0.12000
H475        H  0.79151922  0.68392153  0.21117160     0.11900
H476        H  0.82073622  0.64400369  0.18694895     0.11700
H477        H  0.86081164  0.60723191  0.18802854     0.12200
H478        H  0.88192379  0.63391994  0.27833869     0.14200
C479        C  0.73967752  0.87696704  0.37540575    -0.05800
C480        C  0.71140740  0.86662184  0.36641998    -0.05800
C481        C  0.70829309  0.84434238  0.34417540    -0.23900
C482        C  0.73337793  0.83152758  0.33051290     0.18300
C483        C  0.76190543  0.84155065  0.33943181     0.15500
C484        C  0.76488255  0.86433898  0.36148836    -0.19000
C485        C  0.78705704  0.82828571  0.32643830    -0.20800
C486        C  0.78407921  0.80513967  0.30518448    -0.13300
C487        C  0.75591469  0.79498112  0.29587000     0.03300
C488        C  0.73050661  0.80859330  0.30846320    -0.25500
H489        H  0.69151905  0.87583448  0.37654894     0.08400
H490        H  0.68620388  0.83695869  0.33784387     0.12000
H491        H  0.78684650  0.87178453  0.36818651     0.11900
H492        H  0.80911606  0.83554887  0.33298715     0.11700
H493        H  0.80402238  0.79515756  0.29586777     0.12200
H494        H  0.70866378  0.80074981  0.30181403     0.14200
C495        C  0.90245835  0.98851337  0.55878973    -0.05800
C496        C  0.90260437  0.00876470  0.58322866    -0.05800
C497        C  0.87678966  0.02364555  0.59230911    -0.23900
C498        C  0.85004413  0.01862039  0.57724122     0.18300
C499        C  0.84897726  0.99709731  0.55373576     0.15500
C500        C  0.87517721  0.98203563  0.54467508    -0.19000
C501        C  0.82197520  0.99205489  0.53894535    -0.20800
C502        C  0.79678401  0.00910192  0.54641289    -0.13300
C503        C  0.79792817  0.03148236  0.56898815     0.03300
C504        C  0.82464877  0.03552160  0.58475349    -0.25500
H505        H  0.92316513  0.01436020  0.59450739     0.08400
H506        H  0.87800844  0.03991246  0.61049072     0.12000
H507        H  0.87464653  0.96682572  0.52557905     0.11900
H508        H  0.82048134  0.97536288  0.52118699     0.11700
H509        H  0.77650426  0.00505713  0.53407365     0.12200
H510        H  0.82601371  0.05239399  0.60238182     0.14200
C511        C  0.73341249  0.19661809  0.70559438    -0.05800
C512        C  0.70590678  0.18248681  0.70001016    -0.05800
C513        C  0.70344599  0.15914962  0.67883233    -0.23900
C514        C  0.72852249  0.14909827  0.66303409     0.18300
C515        C  0.75640380  0.16271321  0.66880104     0.15500
C516        C  0.75862544  0.18655322  0.68973948    -0.19000
C517        C  0.78163473  0.15213084  0.65361840    -0.20800
C518        C  0.77929363  0.12840855  0.63286440    -0.13300
C519        C  0.75160809  0.11512010  0.62637948     0.03300
C520        C  0.72622347  0.12566767  0.64161656    -0.25500
H521        H  0.68612092  0.18968568  0.71182638     0.08400
H522        H  0.68189474  0.14890228  0.67487292     0.12000
H523        H  0.78006523  0.19694571  0.69395887     0.11900
H524        H  0.80322520  0.16218961  0.65780369     0.11700
H525        H  0.79914865  0.12085887  0.62137320     0.12200
H526        H  0.70477244  0.11545050  0.63703302     0.14200
C527        C  0.69267238  0.25195515  0.79283951    -0.05800
C528        C  0.68727673  0.28065525  0.80547853    -0.05800
C529        C  0.66690034  0.28420082  0.82889514    -0.23900
C530        C  0.65215548  0.25894077  0.84070245     0.18300
C531        C  0.65726135  0.23001320  0.82795908     0.15500
C532        C  0.67699442  0.22679548  0.80376215    -0.19000
C533        C  0.64342624  0.20458348  0.84035725    -0.20800
C534        C  0.62560546  0.20757154  0.86577855    -0.13300
C535        C  0.62062169  0.23611405  0.87893637     0.03300
C536        C  0.63335528  0.26190669  0.86574748    -0.25500
H537        H  0.69900140  0.30040631  0.79732313     0.08400
H538        H  0.66334013  0.30653058  0.83831381     0.12000
H539        H  0.68122057  0.20453578  0.79441033     0.11900
H540        H  0.64706575  0.18225486  0.83091724     0.11700
H541        H  0.61584654  0.18740350  0.87533619     0.12200
H542        H  0.62983190  0.28398780  0.87578837     0.14200
C543        C  0.78942407  0.28140091  0.75146269    -0.05800
C544        C  0.79901353  0.29213538  0.77942461    -0.05800
C545        C  0.82479651  0.30956395  0.78194865    -0.23900
C546        C  0.84117475  0.31716143  0.75645868     0.18300
C547        C  0.83151881  0.30700994  0.72809371     0.15500
C548        C  0.80589856  0.28879997  0.72579466    -0.19000
C549        C  0.84752528  0.31551978  0.70257577    -0.20800
C550        C  0.87268106  0.33406392  0.70515301    -0.13300
C551        C  0.88257685  0.34401919  0.73332326     0.03300
C552        C  0.86679168  0.33515122  0.75891618    -0.25500
H553        H  0.78678341  0.28659495  0.79951975     0.08400
H554        H  0.83181323  0.31726176  0.80382817     0.12000
H555        H  0.79850042  0.28087178  0.70410488     0.11900
H556        H  0.84042125  0.30811995  0.68062756     0.11700
H557        H  0.88442672  0.34057659  0.68507256     0.12200
H558        H  0.87393415  0.34292074  0.78074572     0.14200
C559        C  0.31000494  0.27065848  0.21578337    -0.05800
C560        C  0.31680320  0.29924295  0.20393973    -0.05800
C561        C  0.33949578  0.30251521  0.18272301    -0.23900
C562        C  0.35531663  0.27714209  0.17250159     0.18300
C563        C  0.34840084  0.24831778  0.18411518     0.15500
C564        C  0.32619993  0.24536034  0.20593369    -0.19000
C565        C  0.36340043  0.22275322  0.17332906    -0.20800
C566        C  0.38485275  0.22557715  0.15097624    -0.13300
C567        C  0.39217222  0.25408197  0.13935865     0.03300
C568        C  0.37749947  0.27992265  0.15049404    -0.25500
H569        H  0.30468828  0.31908486  0.21122294     0.08400
H570        H  0.34438062  0.32478611  0.17402690     0.12000
H571        H  0.32093351  0.22314307  0.21461620     0.11900
H572        H  0.35826419  0.20048393  0.18191247     0.11700
H573        H  0.39586396  0.20537203  0.14285367     0.12200
H574        H  0.38272388  0.30199331  0.14148699     0.14200
C575        C  0.12908044  0.37353551  0.23210217    -0.05800
C576        C  0.14255611  0.36511841  0.20493160    -0.05800
C577        C  0.16699588  0.34572609  0.20442654    -0.23900
C578        C  0.17807600  0.33391768  0.23105944     0.18300
C579        C  0.16394917  0.34128183  0.25839319     0.15500
C580        C  0.13982318  0.36132183  0.25878645    -0.19000
C581        C  0.17425223  0.32852810  0.28489971    -0.20800
C582        C  0.19853458  0.30896969  0.28441005    -0.13300
C583        C  0.21338524  0.30232417  0.25754180     0.03300
C584        C  0.20300519  0.31487976  0.23085517    -0.25500
H585        H  0.13462981  0.37412878  0.18405861     0.08400
H586        H  0.17728895  0.34007745  0.18323726     0.12000
H587        H  0.12929250  0.36724324  0.27981292     0.11900
H588        H  0.16352974  0.33366396  0.30600828     0.11700
H589        H  0.20607807  0.29941602  0.30519540     0.12200
H590        H  0.21399023  0.30942361  0.20995467     0.14200
C591        C  0.17849988  0.04305194  0.41477213    -0.05800
C592        C  0.15307768  0.05116946  0.39855413    -0.05800
C593        C  0.12573238  0.03681323  0.40345165    -0.23900
C594        C  0.12294513  0.01398093  0.42481422     0.18300
C595        C  0.14839794  0.00444446  0.44034049     0.15500
C596        C  0.17604004  0.01889557  0.43514794    -0.19000
C597        C  0.14540658  0.98152488  0.46170348    -0.20800
C598        C  0.11727658  0.96990675  0.46920346    -0.13300
C599        C  0.09150483  0.98059765  0.45520177     0.03300
C600        C  0.09484928  0.00175978  0.43200827    -0.25500
H601        H  0.15405597  0.06926132  0.38245560     0.08400
H602        H  0.10651601  0.04426738  0.39113290     0.12000
H603        H  0.19532182  0.01198252  0.44768308     0.11900
H604        H  0.16467472  0.97353789  0.47360300     0.11700
H605        H  0.11557201  0.95374981  0.48714653     0.12200
H606        H  0.07534286  0.01033480  0.42089662     0.14200
C607        C  0.26288656  0.21194890  0.29644202    -0.05800
C608        C  0.28930631  0.19666344  0.30319473    -0.05800
C609        C  0.28901696  0.17182101  0.32241582    -0.23900
C610        C  0.26223673  0.16147960  0.33494479     0.18300
C611        C  0.23548809  0.17618687  0.32765880     0.15500
C612        C  0.23601756  0.20141573  0.30879029    -0.19000
C613        C  0.20858160  0.16542876  0.33937666    -0.20800
C614        C  0.20813563  0.14059593  0.35847285    -0.13300
C615        C  0.23461198  0.12620615  0.36669471     0.03300
C616        C  0.26168781  0.13678835  0.35465832    -0.25500
H617        H  0.31029262  0.20416825  0.29393629     0.08400
H618        H  0.30975449  0.16072130  0.32750194     0.12000
H619        H  0.21538765  0.21263790  0.30346610     0.11900
H620        H  0.18784201  0.17629099  0.33384536     0.11700
H621        H  0.18698345  0.13300928  0.36731407     0.12200
H622        H  0.28225684  0.12571469  0.36044744     0.14200
C623        C  0.95925126  0.39202950  0.79603557    -0.05800
C624        C  0.94771284  0.37581925  0.82046418    -0.05800
C625        C  0.95923973  0.37974911  0.84911227    -0.23900
C626        C  0.98271335  0.39997847  0.85423184     0.18300
C627        C  0.99511956  0.41600386  0.83000817     0.15500
C628        C  0.98334529  0.41196575  0.80104016    -0.19000
C629        C  0.01862346  0.43628527  0.83539764    -0.20800
C630        C  0.02870379  0.44167338  0.86454295    -0.13300
C631        C  0.01565725  0.42677286  0.88898481     0.03300
C632        C  0.99318255  0.40521080  0.88338165    -0.25500
H633        H  0.92930525  0.36022026  0.81763052     0.08400
H634        H  0.94943910  0.36725146  0.86737955     0.12000
H635        H  0.99262923  0.42462973  0.78261317     0.11900
H636        H  0.02862247  0.44869434  0.81718293     0.11700
H637        H  0.04578255  0.45865568  0.86807231     0.12200
H638        H  0.98263265  0.39368918  0.90188095     0.14200
C639        C  0.94379870  0.55519666  0.17507586    -0.05800
C640        C  0.92713422  0.56248155  0.14958493    -0.05800
C641        C  0.93808935  0.55701815  0.12087737    -0.23900
C642        C  0.96608293  0.54404091  0.11670350     0.18300
C643        C  0.98304819  0.53598003  0.14184646     0.15500
C644        C  0.97180277  0.54153667  0.17094458    -0.19000
C645        C  0.01086921  0.52240384  0.13730017    -0.20800
C646        C  0.02131893  0.51621894  0.10831213    -0.13300
C647        C  0.00451392  0.52404895  0.08317384     0.03300
C648        C  0.97701597  0.53844404  0.08771805    -0.25500
H649        H  0.90544667  0.57274757  0.15173816     0.08400
H650        H  0.92462675  0.56305597  0.10190032     0.12000
H651        H  0.98501205  0.53578598  0.19019990     0.11900
H652        H  0.02424420  0.51587457  0.15618055     0.11700
H653        H  0.04227879  0.50457885  0.10555506     0.12200
H654        H  0.96337764  0.54400060  0.06870045     0.14200
C655        C  0.00481771  0.42144436  0.07574634    -0.05800
C656        C  0.02707128  0.39921461  0.07633301    -0.05800
C657        C  0.04133138  0.39218175  0.10298741    -0.23900
C658        C  0.03378982  0.40744713  0.12948261     0.18300
C659        C  0.00992933  0.42805388  0.12961522     0.15500
C660        C  0.99510727  0.43434600  0.10291089    -0.19000
C661        C  0.00270174  0.44368885  0.15599330    -0.20800
C662        C  0.01983557  0.44005043  0.18162578    -0.13300
C663        C  0.04432694  0.42041142  0.18150977     0.03300
C664        C  0.05064879  0.40357306  0.15542492    -0.25500
H665        H  0.03509162  0.38894075  0.05583258     0.08400
H666        H  0.05943777  0.37614590  0.10251367     0.12000
H667        H  0.97812335  0.45163714  0.10290890     0.11900
H668        H  0.98443004  0.45954198  0.15652215     0.11700
H669        H  0.01416573  0.45307457  0.20140087     0.12200
H670        H  0.06933179  0.38823205  0.15489115     0.14200
C671        C  0.19307005  0.54959766  0.05933393    -0.05800
C672        C  0.16632289  0.55650951  0.07424988    -0.05800
C673        C  0.13907869  0.55293516  0.06023237    -0.23900
C674        C  0.13773411  0.54219074  0.03090436     0.18300
C675        C  0.16419639  0.53533780  0.01521696     0.15500
C676        C  0.19187131  0.53906638  0.02955592    -0.19000
C677        C  0.16225736  0.52423265  0.98580637    -0.20800
C678        C  0.13443111  0.51837070  0.97291826    -0.13300
C679        C  0.10813484  0.52382509  0.98913148     0.03300
C680        C  0.11010955  0.53690509  0.01766834    -0.25500
H681        H  0.16627659  0.56457604  0.09714134     0.08400
H682        H  0.11898349  0.55815099  0.07256110     0.12000
H683        H  0.21221432  0.53382224  0.01767949     0.11900
H684        H  0.18217636  0.51887168  0.97326975     0.11700
H685        H  0.13355897  0.50787124  0.95101671     0.12200
H686        H  0.09006853  0.54115469  0.03048755     0.14200
C687        C  0.80543217  0.42200729  0.05050006    -0.05800
C688        C  0.80410766  0.43847818  0.02384286    -0.05800
C689        C  0.82859370  0.43993994  0.00464773    -0.23900
C690        C  0.85504115  0.42510642  0.01173995     0.18300
C691        C  0.85627042  0.40699219  0.03748107     0.15500
C692        C  0.83136076  0.40530808  0.05656138    -0.19000
C693        C  0.88309552  0.39272100  0.04476269    -0.20800
C694        C  0.90908420  0.39890912  0.02847398    -0.13300
C695        C  0.90839702  0.41866437  0.00417237     0.03300
C696        C  0.88094463  0.43027779  0.99496151    -0.25500
H697        H  0.78445055  0.45116639  0.01822836     0.08400
H698        H  0.82725641  0.45381467  0.98488998     0.12000
H699        H  0.83273117  0.39215418  0.07677782     0.11900
H700        H  0.88448365  0.37866697  0.06436297     0.11700
H701        H  0.93011751  0.39052150  0.03651134     0.12200
H702        H  0.88045085  0.44630310  0.97677167     0.14200
C703        C  0.93992478  0.19014265  0.43795452    -0.05800
C704        C  0.96784451  0.19062130  0.45190808    -0.05800
C705        C  0.98378861  0.16401550  0.45560627    -0.23900
C706        C  0.97197407  0.13636960  0.44574255     0.18300
C707        C  0.94441823  0.13559046  0.43076873     0.15500
C708        C  0.92874546  0.16257896  0.42659107    -0.19000
C709        C  0.93217233  0.10761077  0.42201806    -0.20800
C710        C  0.94594524  0.08064363  0.43022839    -0.13300
C711        C  0.97260943  0.08147813  0.44620372     0.03300
C712        C  0.98617636  0.10931789  0.45271484    -0.25500
H713        H  0.97720654  0.21151588  0.46055770     0.08400
H714        H  0.00486040  0.16492995  0.46717949     0.12000
H715        H  0.90727286  0.16185382  0.41578716     0.11900
H716        H  0.91099467  0.10655682  0.41067821     0.11700
H717        H  0.93473962  0.05928102  0.42608491     0.12200
H718        H  0.00620484  0.10987063  0.46610113     0.14200
C719        C  0.61919942  0.14475792  0.28295591    -0.05800
C720        C  0.63277294  0.14858566  0.31091117    -0.05800
C721        C  0.65390208  0.17149290  0.31545343    -0.23900
C722        C  0.66131092  0.19129523  0.29225472     0.18300
C723        C  0.64711672  0.18795986  0.26432916     0.15500
C724        C  0.62653028  0.16453854  0.25975786    -0.19000
C725        C  0.65367665  0.20811672  0.24134233    -0.20800
C726        C  0.67443018  0.23116860  0.24573534    -0.13300
C727        C  0.68937386  0.23437784  0.27308785     0.03300
C728        C  0.68260165  0.21434001  0.29640171    -0.25500
H729        H  0.62739120  0.13352429  0.32909523     0.08400
H730        H  0.66437935  0.17374494  0.33706438     0.12000
H731        H  0.61583305  0.16199502  0.23825655     0.11900
H732        H  0.64281779  0.20601080  0.21990390     0.11700
H733        H  0.67913213  0.24622578  0.22736313     0.12200
H734        H  0.69369500  0.21675294  0.31768998     0.14200
C735        C  0.73488304  0.32703987  0.23552881    -0.05800
C736        C  0.70802037  0.33600334  0.22261336    -0.05800
C737        C  0.70781640  0.35584657  0.19869348    -0.23900
C738        C  0.73455816  0.36662156  0.18675975     0.18300
C739        C  0.76181810  0.35835632  0.19980973     0.15500
C740        C  0.76180673  0.33897819  0.22459354    -0.19000
C741        C  0.78850801  0.36862865  0.18699286    -0.20800
C742        C  0.78813532  0.38592638  0.16091792    -0.13300
C743        C  0.76106249  0.39379473  0.14767948     0.03300
C744        C  0.73436732  0.38460102  0.16124625    -0.25500
H745        H  0.68703458  0.32721121  0.23077526     0.08400
H746        H  0.68676619  0.36199406  0.18893027     0.12000
H747        H  0.78264160  0.33191955  0.23423564     0.11900
H748        H  0.80964791  0.36261792  0.19665111     0.11700
H749        H  0.80898019  0.39302023  0.15102611     0.12200
H750        H  0.71330181  0.39032243  0.15121545     0.14200
C751        C  0.77648316  0.27821805  0.32463522    -0.05800
C752        C  0.79115802  0.30476206  0.33396354    -0.05800
C753        C  0.81324403  0.30372246  0.35566309    -0.23900
C754        C  0.82149805  0.27600693  0.36798260     0.18300
C755        C  0.80679339  0.24914537  0.35893315     0.15500
C756        C  0.78404804  0.25047406  0.33766549    -0.19000
C757        C  0.81569159  0.22133345  0.37067083    -0.20800
C758        C  0.83952035  0.22008086  0.39049239    -0.13300
C759        C  0.85446042  0.24665591  0.39938440     0.03300
C760        C  0.84485335  0.27464721  0.38848565    -0.25500
H761        H  0.78553765  0.32642206  0.32444695     0.08400
H762        H  0.82428947  0.32451463  0.36235211     0.12000
H763        H  0.77302076  0.22983667  0.33051565     0.11900
H764        H  0.80470517  0.20052943  0.36400990     0.11700
H765        H  0.84639777  0.19824849  0.39871913     0.12200
H766        H  0.85631532  0.29527973  0.39497630     0.14200
C767        C  0.05734445  0.55749255  0.79607705    -0.05800
C768        C  0.03807086  0.53262355  0.79185427    -0.05800
C769        C  0.02129301  0.52106356  0.81549373    -0.23900
C770        C  0.02338887  0.53398214  0.84405623     0.18300
C771        C  0.04202607  0.55944028  0.84858177     0.15500
C772        C  0.05886081  0.57106119  0.82462735    -0.19000
C773        C  0.04415374  0.57226812  0.87721773    -0.20800
C774        C  0.02950163  0.55890398  0.90138156    -0.13300
C775        C  0.01220279  0.53251749  0.89748641     0.03300
C776        C  0.00825922  0.52096808  0.86838810    -0.25500
H777        H  0.03619965  0.52164932  0.77023868     0.08400
H778        H  0.00704043  0.50165076  0.81151054     0.12000
H779        H  0.07342055  0.59028218  0.82836373     0.11900
H780        H  0.05812611  0.59189568  0.88117605     0.11700
H781        H  0.03307113  0.56832202  0.92346971     0.12200
H782        H  0.99525515  0.50055766  0.86494158     0.14200
C783        C  0.08516074  0.99070751  0.56038023    -0.05800
C784        C  0.08383309  0.97365017  0.58672601    -0.05800
C785        C  0.10945035  0.96056953  0.59844846    -0.23900
C786        C  0.13683429  0.96393964  0.58381290     0.18300
C787        C  0.13871789  0.98278256  0.55855252     0.15500
C788        C  0.11306538  0.99656342  0.54741276    -0.19000
C789        C  0.16587956  0.98602738  0.54365842    -0.20800
C790        C  0.19063820  0.96975667  0.55279781    -0.13300
C791        C  0.18899010  0.95000001  0.57726624     0.03300
C792        C  0.16200839  0.94779168  0.59314765    -0.25500
H793        H  0.06266435  0.96874991  0.59721246     0.08400
H794        H  0.10753191  0.94647567  0.61800907     0.12000
H795        H  0.11452432  0.00947050  0.52701449     0.11900
H796        H  0.16780109  0.00053240  0.52438537     0.11700
H797        H  0.21103524  0.97233759  0.54019339     0.12200
H798        H  0.16031863  0.93292048  0.61217309     0.14200
C799        C  0.22252703  0.69880998  0.74777272    -0.05800
C800        C  0.21058034  0.69485996  0.71905991    -0.05800
C801        C  0.18763150  0.67413240  0.71391608    -0.23900
C802        C  0.17577438  0.65732134  0.73752438     0.18300
C803        C  0.18784909  0.66080163  0.76643251     0.15500
C804        C  0.21151397  0.68112575  0.77128774    -0.19000
C805        C  0.17550618  0.64448036  0.79013929    -0.20800
C806        C  0.15127979  0.62515454  0.78535442    -0.13300
C807        C  0.13921881  0.62129593  0.75667663     0.03300
C808        C  0.15177791  0.63742304  0.73277275    -0.25500
H809        H  0.21885637  0.70804363  0.70052807     0.08400
H810        H  0.17875549  0.67173020  0.69160351     0.12000
H811        H  0.22044171  0.68411267  0.79352838     0.11900
H812        H  0.18442425  0.64684443  0.81244559     0.11700
H813        H  0.14228851  0.61278702  0.80411480     0.12200
H814        H  0.14268471  0.63478667  0.71056740     0.14200
C815        C  0.26495773  0.79641449  0.71947021    -0.05800
C816        C  0.29016873  0.81476363  0.71534415    -0.05800
C817        C  0.29005138  0.83796140  0.69422422    -0.23900
C818        C  0.26456267  0.84351294  0.67719739     0.18300
C819        C  0.23878799  0.82586517  0.68188011     0.15500
C820        C  0.23922483  0.80239982  0.70275507    -0.19000
C821        C  0.21304384  0.83181319  0.66543076    -0.20800
C822        C  0.21287714  0.85492014  0.64430880    -0.13300
C823        C  0.23860302  0.87208127  0.63885594     0.03300
C824        C  0.26441887  0.86624445  0.65545403    -0.25500
H825        H  0.31024040  0.81065301  0.72784611     0.08400
H826        H  0.30996293  0.85140652  0.69104530     0.12000
H827        H  0.21945250  0.78869384  0.70588322     0.11900
H828        H  0.19307521  0.81849212  0.66879487     0.11700
H829        H  0.19288242  0.85880955  0.63162888     0.12200
H830        H  0.28436014  0.87946854  0.65149667     0.14200
C831        C  0.30723812  0.74013050  0.80512025    -0.05800
C832        C  0.31038824  0.71235469  0.81994524    -0.05800
C833        C  0.33166086  0.70879070  0.84228349    -0.23900
C834        C  0.35013042  0.73300819  0.85058318     0.18300
C835        C  0.34665656  0.76127555  0.83646040     0.15500
C836        C  0.32547979  0.76460197  0.81374362    -0.19000
C837        C  0.36442787  0.78580954  0.84530659    -0.20800
C838        C  0.38541116  0.78242068  0.86782154    -0.13300
C839        C  0.38953814  0.75432142  0.88164773     0.03300
C840        C  0.37187293  0.72954354  0.87282623    -0.25500
H841        H  0.29664963  0.69307295  0.81399422     0.08400
H842        H  0.33370452  0.68703649  0.85300481     0.12000
H843        H  0.32319129  0.78625907  0.80288389     0.11900
H844        H  0.36201123  0.80769724  0.83492050     0.11700
H845        H  0.39870198  0.80186632  0.87430200     0.12200
H846        H  0.37454543  0.70794577  0.88370836     0.14200
C847        C  0.57535980  0.92036966  0.01215412    -0.05800
C848        C  0.59544300  0.92025140  0.03610064    -0.05800
C849        C  0.60491814  0.89290943  0.04849776    -0.23900
C850        C  0.59414613  0.86505977  0.03756553     0.18300
C851        C  0.57613166  0.86467803  0.01190979     0.15500
C852        C  0.56743686  0.89222957  0.99897373    -0.19000
C853        C  0.56513323  0.83687674  0.00110443    -0.20800
C854        C  0.56992280  0.81007021  0.01686935    -0.13300
C855        C  0.58631007  0.81029670  0.04353762     0.03300
C856        C  0.59946731  0.83788806  0.05294618    -0.25500
H857        H  0.60200156  0.94128107  0.04682539     0.08400
H858        H  0.61911179  0.89365471  0.06796113     0.12000
H859        H  0.55198073  0.89162590  0.98049700     0.11900
H860        H  0.55146947  0.83605916  0.98126957     0.11700
H861        H  0.55997919  0.78930299  0.00860640     0.12200
H862        H  0.61256595  0.83861784  0.07317378     0.14200
C863        C  0.43904950  0.80429247  0.96495328    -0.05800
C864        C  0.41846393  0.82783125  0.96107843    -0.05800
C865        C  0.42190331  0.85551805  0.97558821    -0.23900
C866        C  0.44604773  0.86054070  0.99440730     0.18300
C867        C  0.46628708  0.83691956  0.99989287     0.15500
C868        C  0.46260362  0.80870216  0.98522105    -0.19000
C869        C  0.49044212  0.84256290  0.01891471    -0.20800
C870        C  0.49577494  0.87185688  0.03017189    -0.13300
C871        C  0.47669387  0.89580659  0.02299923     0.03300
C872        C  0.45103009  0.88944292  0.00640362    -0.25500
H873        H  0.39980317  0.82526199  0.94611326     0.08400
H874        H  0.40611502  0.87336648  0.97130167     0.12000
H875        H  0.47857196  0.79083767  0.98864051     0.11900
H876        H  0.50591832  0.82467974  0.02395846     0.11700
H877        H  0.51570401  0.87609183  0.04299930     0.12200
H878        H  0.43593907  0.90757562  0.00087655     0.14200
C879        C  0.55113302  0.00546721  0.12411266    -0.05800
C880        C  0.54519574  0.98717556  0.14888531    -0.05800
C881        C  0.54927702  0.99865728  0.17789745    -0.23900
C882        C  0.55945991  0.02849751  0.18240011     0.18300
C883        C  0.56686097  0.04631509  0.15740760     0.15500
C884        C  0.56268524  0.03468899  0.12858987    -0.19000
C885        C  0.57731229  0.07593995  0.16151489    -0.20800
C886        C  0.58010080  0.08810689  0.19016330    -0.13300
C887        C  0.57210441  0.07107252  0.21527540     0.03300
C888        C  0.56183037  0.04112977  0.21126740    -0.25500
H889        H  0.53569052  0.96482037  0.14585005     0.08400
H890        H  0.54355747  0.98459326  0.19674775     0.12000
H891        H  0.56710383  0.04894312  0.10948949     0.11900
H892        H  0.58304293  0.08983320  0.14253913     0.11700
H893        H  0.58795619  0.11119036  0.19263413     0.12200
H894        H  0.55583045  0.02771945  0.23051429     0.14200
C895        C  0.44414557  0.98802778  0.10046233    -0.05800
C896        C  0.42611627  0.96210531  0.09904138    -0.05800
C897        C  0.41530650  0.94890427  0.12523288    -0.23900
C898        C  0.42365516  0.96059227  0.15324980     0.18300
C899        C  0.44147912  0.98690805  0.15487760     0.15500
C900        C  0.45093365  0.00087916  0.12845376    -0.19000
C901        C  0.45114460  0.99764812  0.18280873    -0.20800
C902        C  0.44373473  0.98209178  0.20889711    -0.13300
C903        C  0.42611153  0.95582597  0.20756491     0.03300
C904        C  0.41575221  0.94553726  0.17956125    -0.25500
H905        H  0.42182533  0.95112722  0.07777233     0.08400
H906        H  0.40192933  0.92852337  0.12360820     0.12000
H907        H  0.46610513  0.01999342  0.12967654     0.11900
H908        H  0.46504295  0.01767141  0.18440762     0.11700
H909        H  0.45175524  0.99065263  0.23011963     0.12200
H910        H  0.40231283  0.92517650  0.17805042     0.14200
C911        C  0.44314287  0.20668524  0.05475946    -0.05800
C912        C  0.42085521  0.18422717  0.05653441    -0.05800
C913        C  0.42438896  0.15599402  0.04314113    -0.23900
C914        C  0.45026639  0.14927204  0.02730152     0.18300
C915        C  0.47200224  0.17202313  0.02296967     0.15500
C916        C  0.46832200  0.20087857  0.03669123    -0.19000
C917        C  0.49749514  0.16477622  0.00620384    -0.20800
C918        C  0.50256480  0.13481998  0.99649157    -0.13300
C919        C  0.48215658  0.11163564  0.00330192     0.03300
C920        C  0.45531512  0.11956733  0.01728815    -0.25500
H921        H  0.40074275  0.18800513  0.06932647     0.08400
H922        H  0.40725459  0.13897451  0.04619036     0.12000
H923        H  0.48555499  0.21793682  0.03465052     0.11900
H924        H  0.51401415  0.18199857  0.00167970     0.11700
H925        H  0.52315829  0.12949526  0.98517074     0.12200
H926        H  0.43905162  0.10211755  0.02224206     0.14200
C927        C  0.57937794  0.08069589  0.00984095    -0.05800
C928        C  0.59570373  0.07938831  0.98302201    -0.05800
C929        C  0.60385162  0.10595473  0.96811654    -0.23900
C930        C  0.59562402  0.13442575  0.97953554     0.18300
C931        C  0.58177550  0.13625201  0.00776926     0.15500
C932        C  0.57431350  0.10945649  0.02301423    -0.19000
C933        C  0.57327466  0.16470414  0.01905580    -0.20800
C934        C  0.57630223  0.19074471  0.00160793    -0.13300
C935        C  0.58835162  0.18902874  0.97266093     0.03300
C936        C  0.59922159  0.16080548  0.96238378    -0.25500
H937        H  0.59993959  0.05784871  0.97217597     0.08400
H938        H  0.61483552  0.10410624  0.94661346     0.12000
H939        H  0.56170453  0.11111125  0.04362395     0.11900
H940        H  0.56276212  0.16661506  0.04078613     0.11700
H941        H  0.56829743  0.21207542  0.01045198     0.12200
H942        H  0.60898068  0.15893703  0.94029539     0.14200
C943        C  0.06135953  0.19622278  0.56172308    -0.05800
C944        C  0.03470393  0.19700942  0.54540120    -0.05800
C945        C  0.01756876  0.17098137  0.54118516    -0.23900
C946        C  0.02674458  0.14339238  0.55296399     0.18300
C947        C  0.05289743  0.14221476  0.57025707     0.15500
C948        C  0.06994200  0.16873661  0.57478112    -0.19000
C949        C  0.06225308  0.11420355  0.58135673    -0.20800
C950        C  0.04697793  0.08751387  0.57372445    -0.13300
C951        C  0.02175567  0.08856497  0.55555094     0.03300
C952        C  0.01120517  0.11666576  0.54606336    -0.25500
H953        H  0.02714976  0.21777593  0.53539686     0.08400
H954        H  0.99754591  0.17228644  0.52793289     0.12000
H955        H  0.09036625  0.16769284  0.58741895     0.11900
H956        H  0.08229355  0.11273251  0.59454112     0.11700
H957        H  0.05597269  0.06590280  0.58031979     0.12200
H958        H  0.99230143  0.11740600  0.53116057     0.14200
C959        C  0.43507568  0.04687076  0.81872082    -0.05800
C960        C  0.44420554  0.01656324  0.82001042    -0.05800
C961        C  0.44577059  0.00163762  0.84743364    -0.23900
C962        C  0.43926013  0.01698119  0.87424861     0.18300
C963        C  0.42915254  0.04712296  0.87321986     0.15500
C964        C  0.42649772  0.06159038  0.84550796    -0.19000
C965        C  0.42383721  0.06294329  0.90003625    -0.20800
C966        C  0.43146569  0.05015732  0.92743646    -0.13300
C967        C  0.44297473  0.02073926  0.92866121     0.03300
C968        C  0.44500247  0.00360281  0.90206039    -0.25500
H969        H  0.45030957  0.00442862  0.79983042     0.08400
H970        H  0.45308035  0.97837784  0.84775795     0.12000
H971        H  0.41923936  0.08495891  0.84503465     0.11900
H972        H  0.41602620  0.08610726  0.89969162     0.11700
H973        H  0.43046346  0.06402279  0.94745848     0.12200
H974        H  0.45446920  0.98114719  0.90271565     0.14200
C975        C  0.10977676  0.43169029  0.99326789    -0.05800
C976        C  0.13434624  0.44503189  0.00761610    -0.05800
C977        C  0.16315198  0.44045316  0.99663453    -0.23900
C978        C  0.16787278  0.42231988  0.97119227     0.18300
C979        C  0.14342023  0.40744295  0.95775084     0.15500
C980        C  0.11461895  0.41216382  0.96888210    -0.19000
C981        C  0.14792114  0.38932581  0.93238915    -0.20800
C982        C  0.17609135  0.38708780  0.91952252    -0.13300
C983        C  0.20048988  0.40283639  0.93174503     0.03300
C984        C  0.19631406  0.41981004  0.95820253    -0.25500
H985        H  0.13113285  0.46074612  0.02601891     0.08400
H986        H  0.18153400  0.45212386  0.00725559     0.12000
H987        H  0.09579642  0.40201728  0.95751722     0.11900
H988        H  0.12947457  0.37756381  0.92196169     0.11700
H989        H  0.17857200  0.37344286  0.89948847     0.12200
H990        H  0.21484021  0.43197859  0.96802260     0.14200
C991        C  0.23310404  0.24771159  0.67527053    -0.05800
C992        C  0.22953709  0.21969356  0.66038097    -0.05800
C993        C  0.20622931  0.21482816  0.64040158    -0.23900
C994        C  0.18601629  0.23795737  0.63453063     0.18300
C995        C  0.18960516  0.26641940  0.64883388     0.15500
C996        C  0.21291685  0.27106063  0.66926993    -0.19000
C997        C  0.16988797  0.28983729  0.64229878    -0.20800
C998        C  0.14703364  0.28519377  0.62173135    -0.13300
C999        C  0.14294694  0.25688369  0.60772584     0.03300
C1000       C  0.16244520  0.23319388  0.61442087    -0.25500
H1001       H  0.24465495  0.20121042  0.66434756     0.08400
H1002       H  0.20405970  0.19295989  0.62952016     0.12000
H1003       H  0.21540061  0.29282651  0.68028354     0.11900
H1004       H  0.17227401  0.31182814  0.65289807     0.11700
H1005       H  0.13226453  0.30378126  0.61694741     0.12200
H1006       H  0.15973072  0.21141635  0.60345498     0.14200
C1007       C  0.32251493  0.20783479  0.72293029    -0.05800
C1008       C  0.32767232  0.18764527  0.69912820    -0.05800
C1009       C  0.34807055  0.16423652  0.70192385    -0.23900
C1010       C  0.36320148  0.16022455  0.72881690     0.18300
C1011       C  0.35792502  0.18008255  0.75312782     0.15500
C1012       C  0.33789486  0.20404492  0.74990268    -0.19000
C1013       C  0.37240916  0.17527584  0.78034444    -0.20800
C1014       C  0.39157392  0.15069915  0.78351993    -0.13300
C1015       C  0.39705657  0.13110469  0.75933342     0.03300
C1016       C  0.38309416  0.13627304  0.73191826    -0.25500
H1017       H  0.31610844  0.19013499  0.67815641     0.08400
H1018       H  0.35177019  0.14908603  0.68317111     0.12000
H1019       H  0.33379032  0.21924881  0.76853688     0.11900
H1020       H  0.36859271  0.19021231  0.79922485     0.11700
H1021       H  0.40229130  0.14711547  0.80478174     0.12200
H1022       H  0.38698956  0.12105516  0.71323416     0.14200
C1023       C  0.28377762  0.30576137  0.75632807    -0.05800
C1024       C  0.31055236  0.31210653  0.77129872    -0.05800
C1025       C  0.31138105  0.33267299  0.79512679    -0.23900
C1026       C  0.28531704  0.34690112  0.80482770     0.18300
C1027       C  0.25860051  0.34189311  0.78900925     0.15500
C1028       C  0.25812753  0.32183967  0.76447217    -0.19000
C1029       C  0.23239512  0.35554985  0.79913783    -0.20800
C1030       C  0.23224704  0.37240218  0.82565805    -0.13300
C1031       C  0.25842376  0.37652197  0.84223657     0.03300
C1032       C  0.28517634  0.36462798  0.83103011    -0.25500
H1033       H  0.33076056  0.30034329  0.76523834     0.08400
H1034       H  0.33210055  0.33635881  0.80679909     0.12000
H1035       H  0.23736249  0.31714439  0.75317720     0.11900
H1036       H  0.21174509  0.35213676  0.78724633     0.11700
H1037       H  0.21140719  0.38164838  0.83358409     0.12200
H1038       H  0.30549058  0.36755005  0.84360104     0.14200
C1039       C  0.91058329  0.52870759  0.95795288    -0.05800
C1040       C  0.88894804  0.53696211  0.97905133    -0.05800
C1041       C  0.85994439  0.54320210  0.96993983    -0.23900
C1042       C  0.85235674  0.54126037  0.93962453     0.18300
C1043       C  0.87461244  0.53467998  0.91820889     0.15500
C1044       C  0.90353131  0.52862499  0.92752024    -0.19000
C1045       C  0.86736846  0.53303012  0.88788828    -0.20800
C1046       C  0.83827086  0.53791884  0.87877324    -0.13300
C1047       C  0.81589778  0.54381401  0.89984409     0.03300
C1048       C  0.82292721  0.54533517  0.93030576    -0.25500
H1049       H  0.89385003  0.53621205  0.00267042     0.08400
H1050       H  0.84322441  0.54830653  0.98664841     0.12000
H1051       H  0.92014195  0.52172666  0.91126880     0.11900
H1052       H  0.88418768  0.52798585  0.87125335     0.11700
H1053       H  0.83312407  0.53693168  0.85518780     0.12200
H1054       H  0.80569660  0.55038100  0.94652865     0.14200
C1055       C  0.94922915  0.78231840  0.56570242    -0.05800
C1056       C  0.97005191  0.78105171  0.54218248    -0.05800
C1057       C  0.98804692  0.80600354  0.53547085    -0.23900
C1058       C  0.98548062  0.83301432  0.55189402     0.18300
C1059       C  0.96536554  0.83443121  0.57615897     0.15500
C1060       C  0.94760121  0.80905313  0.58308474    -0.19000
C1061       C  0.96232456  0.86170785  0.59216245    -0.20800
C1062       C  0.97726648  0.88783218  0.58277937    -0.13300
C1063       C  0.99636488  0.88695467  0.55794578     0.03300
C1064       C  0.00136424  0.85911067  0.54336151    -0.11700
H1065       H  0.97218928  0.76084054  0.52850990     0.08400
H1066       H  0.00343401  0.80440531  0.51690677     0.12000
H1067       H  0.93192690  0.81049818  0.60142650     0.11900
H1068       H  0.94713853  0.86326231  0.61089332     0.11700
H1069       H  0.97278573  0.90913787  0.59404709     0.12200
H1070       H  0.01543865  0.85838350  0.52369683     0.14200
C1071       C  0.73507237  0.70085522  0.78027851    -0.05800
C1072       C  0.71353010  0.69941293  0.80310884    -0.05800
C1073       C  0.71176733  0.67434659  0.82190349    -0.23900
C1074       C  0.73159461  0.65022051  0.81837298     0.18300
C1075       C  0.75307188  0.65123645  0.79528170     0.15500
C1076       C  0.75453986  0.67633722  0.77634304    -0.19000
C1077       C  0.77329968  0.62746992  0.79196010    -0.20800
C1078       C  0.77303671  0.60350241  0.81198617    -0.13300
C1079       C  0.75215017  0.60245537  0.83530200     0.03300
C1080       C  0.73095809  0.62555055  0.83802828    -0.25500
H1081       H  0.69814545  0.71784211  0.80671771     0.08400
H1082       H  0.69519318  0.67405814  0.83947483     0.12000
H1083       H  0.77124208  0.67694375  0.75887755     0.11900
H1084       H  0.78986448  0.62781605  0.77436250     0.11700
H1085       H  0.78952495  0.58588939  0.80954019     0.12200
H1086       H  0.71506382  0.62507663  0.85623496     0.14200
C1087       C  0.78599039  0.75659618  0.69964668    -0.05800
C1088       C  0.79521043  0.78448886  0.68776279    -0.05800
C1089       C  0.81821578  0.78587312  0.66658085    -0.23900
C1090       C  0.83220864  0.75933413  0.65647008     0.18300
C1091       C  0.82295462  0.73120721  0.66817635     0.15500
C1092       C  0.80026352  0.73004582  0.68977892    -0.19000
C1093       C  0.83627516  0.70454093  0.65784174    -0.20800
C1094       C  0.85820391  0.70555945  0.63579347    -0.13300
C1095       C  0.86775956  0.73327922  0.62374078     0.03300
C1096       C  0.85487501  0.76027553  0.63456338    -0.25500
H1097       H  0.78481392  0.80533475  0.69506218     0.08400
H1098       H  0.82488689  0.80769224  0.65793177     0.12000
H1099       H  0.79339395  0.70832151  0.69852750     0.11900
H1100       H  0.82947520  0.68278343  0.66655289     0.11700
H1101       H  0.86776299  0.68441397  0.62816362     0.12200
H1102       H  0.86182815  0.78178974  0.62539888     0.14200
C1103       C  0.55379773  0.94716363  0.79959477    -0.05800
C1104       C  0.52502392  0.94182894  0.81039949    -0.05800
C1105       C  0.51638596  0.95273012  0.83830788    -0.23900
C1106       C  0.53600516  0.97016857  0.85550692     0.18300
C1107       C  0.56469616  0.97694139  0.84449684     0.15500
C1108       C  0.57369480  0.96487412  0.81664901    -0.19000
C1109       C  0.58379498  0.99522779  0.86182783    -0.20800
C1110       C  0.57471563  0.00591952  0.89004632    -0.13300
C1111       C  0.54670962  0.99795878  0.90144017     0.03300
C1112       C  0.52744170  0.98037566  0.88383888    -0.25500
H1113       H  0.50947679  0.92823938  0.79760182     0.08400
H1114       H  0.49448202  0.94708402  0.84662889     0.12000
H1115       H  0.59581980  0.96933176  0.80821371     0.11900
H1116       H  0.60577153  0.00089493  0.85376446     0.11700
H1117       H  0.58992967  0.01938921  0.90339211     0.12200
H1118       H  0.50574352  0.97427674  0.89241650     0.14200
C1119       C  0.62063365  0.88281398  0.73907193    -0.05800
C1120       C  0.63430482  0.87864168  0.71109975    -0.05800
C1121       C  0.65790079  0.85846500  0.70753373    -0.23900
C1122       C  0.66783806  0.84145212  0.73173409     0.18300
C1123       C  0.65433007  0.84554406  0.76003008     0.15500
C1124       C  0.63121629  0.86659850  0.76365646    -0.19000
C1125       C  0.66350734  0.82777630  0.78398781    -0.20800
C1126       C  0.68527925  0.80569126  0.77981276    -0.13300
C1127       C  0.69885930  0.80133151  0.75179045     0.03300
C1128       C  0.69037349  0.81976104  0.72791006    -0.25500
H1129       H  0.62657358  0.89091396  0.69185510     0.08400
H1130       H  0.66788385  0.85562295  0.68565747     0.12000
H1131       H  0.62058865  0.86932048  0.78524141     0.11900
H1132       H  0.65338918  0.83048263  0.80580417     0.11700
H1133       H  0.69147601  0.79188507  0.79860701     0.12200
H1134       H  0.70041145  0.81639163  0.70612184     0.14200
C1135       C  0.52317195  0.40829716  0.05305754    -0.05800
C1136       C  0.53911613  0.38296746  0.04263765    -0.05800
C1137       C  0.52915768  0.35352574  0.04867287    -0.23900
C1138       C  0.50266135  0.34885289  0.06460294     0.18300
C1139       C  0.48767912  0.37421095  0.07676161     0.15500
C1140       C  0.49831460  0.40357206  0.07148065    -0.19000
C1141       C  0.46130523  0.37003279  0.09269033    -0.20800
C1142       C  0.44933289  0.34116973  0.09592032    -0.13300
C1143       C  0.46335491  0.31555401  0.08336108     0.03300
C1144       C  0.49035474  0.31955356  0.06786183    -0.25500
H1145       H  0.55829672  0.38590194  0.02828748     0.08400
H1146       H  0.54137386  0.33447989  0.03957936     0.12000
H1147       H  0.48566144  0.42277054  0.07961512     0.11900
H1148       H  0.44953382  0.38919081  0.10215867     0.11700
H1149       H  0.42857365  0.33908645  0.10800208     0.12200
H1150       H  0.50160040  0.30010695  0.05831274     0.14200
C1151       C  0.51307088  0.40089474  0.95409093    -0.05800
C1152       C  0.53090547  0.39928830  0.92826872    -0.05800
C1153       C  0.54454064  0.37215367  0.91958857    -0.23900
C1154       C  0.54097517  0.34592099  0.93667355     0.18300
C1155       C  0.52201284  0.34664445  0.96182387     0.15500
C1156       C  0.50789752  0.37397095  0.97018208    -0.19000
C1157       C  0.51856211  0.32033322  0.97888511    -0.20800
C1158       C  0.53469311  0.29407426  0.97193410    -0.13300
C1159       C  0.55430922  0.29322904  0.94739489     0.03300
C1160       C  0.55676513  0.31929765  0.92950856    -0.25500
H1161       H  0.53556133  0.41946002  0.91549593     0.08400
H1162       H  0.55885784  0.37201737  0.90010873     0.12000
H1163       H  0.49454126  0.37467145  0.99033484     0.11900
H1164       H  0.50376379  0.32020186  0.99798180     0.11700
H1165       H  0.53184217  0.27442007  0.98591728     0.12200
H1166       H  0.57153771  0.31921097  0.91037584     0.14200
C1167       C  0.70357926  0.45497447  0.07873271    -0.05800
C1168       C  0.67804336  0.44736783  0.09534100    -0.05800
C1169       C  0.65058613  0.45999192  0.08883343    -0.23900
C1170       C  0.64795331  0.48068924  0.06562883     0.18300
C1171       C  0.67345871  0.48949919  0.04929154     0.15500
C1172       C  0.70117416  0.47644233  0.05582559    -0.19000
C1173       C  0.67049342  0.51048337  0.02616060    -0.20800
C1174       C  0.64238225  0.52123429  0.01833085    -0.13300
C1175       C  0.61683675  0.51106269  0.03340297     0.03300
C1176       C  0.61993348  0.49154477  0.05765078    -0.25500
H1177       H  0.67905605  0.43096894  0.11310833     0.08400
H1178       H  0.63128278  0.45307616  0.10159635     0.12000
H1179       H  0.72065580  0.48275317  0.04301971     0.11900
H1180       H  0.68969680  0.51763777  0.01338560     0.11700
H1181       H  0.64043328  0.53586630  0.99918529     0.12200
H1182       H  0.60031811  0.48351854  0.06929804     0.14200
C1183       C  0.70761010  0.52805318  0.90455213    -0.05800
C1184       C  0.71103110  0.50565746  0.92640834    -0.05800
C1185       C  0.68633457  0.49072489  0.93837414    -0.23900
C1186       C  0.65768067  0.49795266  0.92882236     0.18300
C1187       C  0.65397668  0.51999098  0.90649893     0.15500
C1188       C  0.67888389  0.53473973  0.89443857    -0.19000
C1189       C  0.62532779  0.52773372  0.89734355    -0.20800
C1190       C  0.60056291  0.51514364  0.91143799    -0.13300
C1191       C  0.60398269  0.49414248  0.93448616     0.03300
C1192       C  0.63263264  0.48471662  0.94230254    -0.25500
H1193       H  0.73284047  0.49977337  0.93452553     0.08400
H1194       H  0.68961750  0.47397311  0.95551447     0.12000
H1195       H  0.67577111  0.55181659  0.87756177     0.11900
H1196       H  0.62206413  0.54453403  0.88025122     0.11700
H1197       H  0.57867651  0.52296017  0.90530803     0.12200
H1198       H  0.63549086  0.46908733  0.96053593     0.14200
C1199       C  0.55694134  0.70366728  0.06473978    -0.05800
C1200       C  0.53292254  0.70526967  0.04476162    -0.05800
C1201       C  0.51696544  0.67920150  0.03635331    -0.23900
C1202       C  0.52493077  0.65064652  0.04704791     0.18300
C1203       C  0.54836362  0.64876946  0.06783158     0.15500
C1204       C  0.56396070  0.67518148  0.07671549    -0.19000
C1205       C  0.55633039  0.62035911  0.07871374    -0.20800
C1206       C  0.54237540  0.59400743  0.06817257    -0.13300
C1207       C  0.51991112  0.59516075  0.04633466     0.03300
C1208       C  0.51076801  0.62390260  0.03651903    -0.25500
H1209       H  0.52646647  0.72674626  0.03549667     0.08400
H1210       H  0.49857404  0.68135555  0.02090755     0.12000
H1211       H  0.58229881  0.67334233  0.09234001     0.11900
H1212       H  0.57422789  0.61835595  0.09483705     0.11700
H1213       H  0.55022053  0.57251710  0.07617958     0.12200
H1214       H  0.49381924  0.62542378  0.01935104     0.14200
C1215       C  0.46893296  0.69970673  0.93503677    -0.05800
C1216       C  0.49379663  0.70045816  0.95397691    -0.05800
C1217       C  0.51084029  0.67445617  0.95836754    -0.23900
C1218       C  0.50306040  0.64700591  0.94448304     0.18300
C1219       C  0.47894387  0.64626608  0.92444004     0.15500
C1220       C  0.46227238  0.67256684  0.91970716    -0.19000
C1221       C  0.47117701  0.61891996  0.91041399    -0.20800
C1222       C  0.48561506  0.59212775  0.91779144    -0.13300
C1223       C  0.50827387  0.59213995  0.93930752     0.03300
C1224       C  0.51783966  0.61999867  0.95153802    -0.25500
H1225       H  0.49991472  0.72102708  0.96567451     0.08400
H1226       H  0.52968399  0.67562425  0.97333724     0.12000
H1227       H  0.44325904  0.67151530  0.90469384     0.11900
H1228       H  0.45284088  0.61796115  0.89465129     0.11700
H1229       H  0.47782718  0.57115392  0.90800240     0.12200
H1230       H  0.53515051  0.62040274  0.96824837     0.14200
C1231       C  0.30259903  0.53697099  0.07105500    -0.05800
C1232       C  0.30537776  0.52236494  0.04321898    -0.05800
C1233       C  0.33319814  0.51334176  0.03258752    -0.23900
C1234       C  0.35879058  0.51876324  0.04959513     0.18300
C1235       C  0.35637082  0.53222770  0.07812813     0.15500
C1236       C  0.32828689  0.54123069  0.08868951    -0.19000
C1237       C  0.38223086  0.53729475  0.09510078    -0.20800
C1238       C  0.41034628  0.53026001  0.08328566    -0.13300
C1239       C  0.41281028  0.51829582  0.05434406     0.03300
C1240       C  0.38688497  0.51202782  0.03797058    -0.25500
H1241       H  0.28612446  0.51852668  0.02926790     0.08400
H1242       H  0.33478459  0.50273957  0.01076139     0.12000
H1243       H  0.32661442  0.55214666  0.11035792     0.11900
H1244       H  0.38076259  0.54749009  0.11711302     0.11700
H1245       H  0.43008213  0.53546952  0.09608724     0.12200
H1246       H  0.38871808  0.50298669  0.01551998     0.14200
C1247       C  0.30816758  0.42616934  0.92770036    -0.05800
C1248       C  0.31164735  0.42407806  0.95872381    -0.05800
C1249       C  0.33782283  0.43392261  0.97238049    -0.23900
C1250       C  0.36082613  0.44663391  0.95534940     0.18300
C1251       C  0.35732488  0.44986619  0.92427315     0.15500
C1252       C  0.33115743  0.43918170  0.91054021    -0.19000
C1253       C  0.38008401  0.46372053  0.90761448    -0.20800
C1254       C  0.40611995  0.47405386  0.92161245    -0.13300
C1255       C  0.41014585  0.47006143  0.95238458     0.03300
C1256       C  0.38724808  0.45619058  0.96899483    -0.25500
H1257       H  0.29435074  0.41413963  0.97238914     0.08400
H1258       H  0.34008178  0.43157198  0.99630404     0.12000
H1259       H  0.32855156  0.44125025  0.88661861     0.11900
H1260       H  0.37770211  0.46666141  0.88377885     0.11700
H1261       H  0.42325356  0.48478068  0.90832521     0.12200
H1262       H  0.38977016  0.45307744  0.99281299     0.14200
C1263       C  0.07147528  0.45347415  0.28358253    -0.05800
C1264       C  0.05092942  0.47734182  0.28243639    -0.05800
C1265       C  0.04510302  0.49527256  0.30765992    -0.23900
C1266       C  0.05950782  0.48960384  0.33467585     0.18300
C1267       C  0.08060179  0.46606253  0.33599808     0.15500
C1268       C  0.08662532  0.44837942  0.31046976    -0.19000
C1269       C  0.09439837  0.45973960  0.36317846    -0.20800
C1270       C  0.08601651  0.47526523  0.38913550    -0.13300
C1271       C  0.06420428  0.49789399  0.38834438     0.03300
C1272       C  0.05190613  0.50583147  0.36076318    -0.25500
H1273       H  0.03906849  0.48203969  0.26206018     0.08400
H1274       H  0.02875924  0.51312838  0.30621182     0.12000
H1275       H  0.10246696  0.43006717  0.31186237     0.11900
H1276       H  0.11054160  0.44173712  0.36467005     0.11700
H1277       H  0.09532903  0.46834611  0.41022525     0.12200
H1278       H  0.03439626  0.52257747  0.36006517     0.14200
C1279       C  0.94397540  0.55140318  0.28704033    -0.05800
C1280       C  0.94706526  0.57231316  0.31063065    -0.05800
C1281       C  0.95504829  0.56298114  0.33911582    -0.23900
C1282       C  0.95977107  0.53233027  0.34498599     0.18300
C1283       C  0.95747710  0.51082208  0.32157763     0.15500
C1284       C  0.94985803  0.52052482  0.29249063    -0.19000
C1285       C  0.96252621  0.48013057  0.32799221    -0.20800
C1286       C  0.96992705  0.47105971  0.35709252    -0.13300
C1287       C  0.97207046  0.49242023  0.38049929     0.03300
C1288       C  0.96678606  0.52304821  0.37401503    -0.25500
H1289       H  0.94292620  0.59612972  0.30706852     0.08400
H1290       H  0.95702483  0.57980266  0.35676647     0.12000
H1291       H  0.94741897  0.50409789  0.27457016     0.11900
H1292       H  0.96102422  0.46316471  0.31045930     0.11700
H1293       H  0.97439047  0.44742492  0.36118076     0.12200
H1294       H  0.96889962  0.54003297  0.39151041     0.14200
C1295       C  0.06565046  0.52367132  0.58196716    -0.05800
C1296       C  0.07663050  0.55343371  0.58217732    -0.05800
C1297       C  0.08654285  0.56685450  0.60881432    -0.23900
C1298       C  0.08453236  0.55100627  0.63579091     0.18300
C1299       C  0.07435816  0.52064751  0.63538761     0.15500
C1300       C  0.06554192  0.50704474  0.60841894    -0.19000
C1301       C  0.07117436  0.50501161  0.66221774    -0.20800
C1302       C  0.07650820  0.51966532  0.68935323    -0.13300
C1303       C  0.08583611  0.55004905  0.69028934     0.03300
C1304       C  0.09078086  0.56539510  0.66329388    -0.25500
H1305       H  0.07607710  0.56677687  0.56204204     0.08400
H1306       H  0.09414549  0.59014041  0.60858577     0.12000
H1307       H  0.05619229  0.48435728  0.60841296     0.11900
H1308       H  0.06346905  0.48171902  0.66229816     0.11700
H1309       H  0.07304282  0.50721010  0.70978427     0.12200
H1310       H  0.09792340  0.58884577  0.66375989     0.14200
C1311       C  0.94899555  0.41976756  0.68872521    -0.05800
C1312       C  0.97437509  0.43834499  0.68956065    -0.05800
C1313       C  0.98287088  0.45507129  0.66460591    -0.23900
C1314       C  0.96617619  0.45355451  0.63828186     0.18300
C1315       C  0.94025370  0.43556653  0.63712845     0.15500
C1316       C  0.93181460  0.41880329  0.66235795    -0.19000
C1317       C  0.92379620  0.43404168  0.61046771    -0.20800
C1318       C  0.93386489  0.44900757  0.58477336    -0.13300
C1319       C  0.96031637  0.46582532  0.58561035     0.03300
C1320       C  0.97578219  0.46871967  0.61269451    -0.25500
H1321       H  0.98795807  0.43967234  0.70940713     0.08400
H1322       H  0.00283439  0.46882122  0.66572763     0.12000
H1323       H  0.91206008  0.40477343  0.66126187     0.11900
H1324       H  0.90384196  0.42036747  0.60918579     0.11700
H1325       H  0.92201254  0.44601166  0.56396486     0.12200
H1326       H  0.99637871  0.48154162  0.61334550     0.14200
C1327       C  0.06821610  0.40345513  0.48233543    -0.05800
C1328       C  0.09431439  0.40492228  0.49946082    -0.05800
C1329       C  0.10485957  0.37937000  0.51403949    -0.23900
C1330       C  0.08943479  0.35184895  0.51189682     0.18300
C1331       C  0.06431039  0.34959019  0.49319069     0.15500
C1332       C  0.05407088  0.37530373  0.47819674    -0.19000
C1333       C  0.04888332  0.32206696  0.49111890    -0.20800
C1334       C  0.05741150  0.29743692  0.50837236    -0.13300
C1335       C  0.08172305  0.29970871  0.52793372     0.03300
C1336       C  0.09803769  0.32693741  0.52903146    -0.25500
H1337       H  0.10562691  0.42630784  0.50306182     0.08400
H1338       H  0.12429157  0.38150246  0.52807769     0.12000
H1339       H  0.03377352  0.37388099  0.46533010     0.11900
H1340       H  0.02974577  0.31980157  0.47668681     0.11700
H1341       H  0.04453787  0.27674283  0.50673771     0.12200
H1342       H  0.11695096  0.32908130  0.54377179     0.14200
C1343       C  0.95633574  0.40450557  0.49111860    -0.05800
C1344       C  0.92923977  0.40613046  0.47574389    -0.05800
C1345       C  0.91416303  0.37981051  0.46720078    -0.23900
C1346       C  0.92610829  0.35142375  0.47360104     0.18300
C1347       C  0.95220172  0.34957150  0.49089287     0.15500
C1348       C  0.96686810  0.37612771  0.50001057    -0.19000
C1349       C  0.96427290  0.32120945  0.49709235    -0.20800
C1350       C  0.95175865  0.29506021  0.48469293    -0.13300
C1351       C  0.92665105  0.29673234  0.46620061     0.03300
C1352       C  0.91332293  0.32499889  0.46164011    -0.25500
H1353       H  0.92054222  0.42774144  0.46880241     0.08400
H1354       H  0.89402247  0.38167109  0.45422599     0.12000
H1355       H  0.98779878  0.37452435  0.51174943     0.11900
H1356       H  0.98403122  0.31932275  0.51064858     0.11700
H1357       H  0.96226365  0.27357485  0.48903118     0.12200
H1358       H  0.89385698  0.32668198  0.44762054     0.14200
C1359       C  0.91819237  0.67630891  0.54413721    -0.05800
C1360       C  0.90537880  0.64982252  0.55589810    -0.05800
C1361       C  0.91052153  0.62160945  0.54274051    -0.23900
C1362       C  0.92854310  0.61906467  0.51735919     0.18300
C1363       C  0.94052953  0.64544011  0.50428466     0.15500
C1364       C  0.93530077  0.67399149  0.51774583    -0.19000
C1365       C  0.95853429  0.64251806  0.47875936    -0.20800
C1366       C  0.96654171  0.61377075  0.46793568    -0.13300
C1367       C  0.95619021  0.58737658  0.48203757     0.03300
C1368       C  0.93601287  0.59038238  0.50591916    -0.25500
H1369       H  0.89200811  0.65066288  0.57601466     0.08400
H1370       H  0.90106352  0.60163439  0.55298899     0.12000
H1371       H  0.94510114  0.69413221  0.50816864     0.11900
H1372       H  0.96759992  0.66240471  0.46804022     0.11700
H1373       H  0.98213433  0.61223605  0.44954523     0.12200
H1374       H  0.92783643  0.57037501  0.51715361     0.14200
C1375       C  0.06055982  0.58817677  0.49398766    -0.05800
C1376       C  0.08883436  0.58905218  0.48071702    -0.05800
C1377       C  0.09980348  0.61599603  0.46881767    -0.23900
C1378       C  0.08226366  0.64212441  0.46937039     0.18300
C1379       C  0.05479379  0.64192404  0.48467815     0.15500
C1380       C  0.04454245  0.61518210  0.49764711    -0.19000
C1381       C  0.03698448  0.66781029  0.48485457    -0.20800
C1382       C  0.04542253  0.69310354  0.46844533    -0.13300
C1383       C  0.07199801  0.69302192  0.45190806     0.03300
C1384       C  0.09084033  0.66779657  0.45335638    -0.25500
H1385       H  0.10156325  0.56851227  0.47779207     0.08400
H1386       H  0.12109436  0.61587559  0.45746059     0.12000
H1387       H  0.02260743  0.61479415  0.50773288     0.11900
H1388       H  0.01600884  0.66809604  0.49676803     0.11700
H1389       H  0.03064350  0.71232685  0.46794803     0.12200
H1390       H  0.11161911  0.66761027  0.44105725     0.14200
C1391       C  0.46563607  0.06069000  0.71155979    -0.05800
C1392       C  0.48348603  0.03469943  0.70971338    -0.05800
C1393       C  0.49697041  0.02624614  0.68248257    -0.23900
C1394       C  0.49239874  0.04326379  0.65650407     0.18300
C1395       C  0.47554478  0.07000883  0.65856331     0.15500
C1396       C  0.46262041  0.07855128  0.68581026    -0.19000
C1397       C  0.47084857  0.08742528  0.63308802    -0.20800
C1398       C  0.48107469  0.07751000  0.60531420    -0.13300
C1399       C  0.49638500  0.05003911  0.60232404     0.03300
C1400       C  0.50304714  0.03348790  0.62830621    -0.25500
H1401       H  0.48671003  0.02072117  0.72912827     0.08400
H1402       H  0.51050073  0.00611209  0.68159618     0.12000
H1403       H  0.44936719  0.09893781  0.68653430     0.11900
H1404       H  0.45815531  0.10816181  0.63442300     0.11700
H1405       H  0.47568199  0.09069692  0.58584908     0.12200
H1406       H  0.51459395  0.01210693  0.62636204     0.14200
C1407       C  0.52940505  0.92394567  0.69509536    -0.05800
C1408       C  0.50352353  0.94154372  0.69748664    -0.05800
C1409       C  0.48669328  0.94810061  0.67223439    -0.23900
C1410       C  0.49563693  0.93757748  0.64402845     0.18300
C1411       C  0.52023410  0.91799173  0.64164725     0.15500
C1412       C  0.53673857  0.91100634  0.66720254    -0.19000
C1413       C  0.52912081  0.90736732  0.61345631    -0.20800
C1414       C  0.51572439  0.91842681  0.58770844    -0.13300
C1415       C  0.49302184  0.94014661  0.58966621     0.03300
C1416       C  0.48187497  0.94816219  0.61805976    -0.25500
H1417       H  0.49687944  0.95135202  0.71868367     0.08400
H1418       H  0.46761969  0.96278966  0.67457023     0.12000
H1419       H  0.55626540  0.89692885  0.66497386     0.11900
H1420       H  0.54766672  0.89199333  0.61120942     0.11700
H1421       H  0.52470726  0.91164152  0.56623541     0.12200
H1422       H  0.46438546  0.96482175  0.62005151     0.14200
C1423       C  0.38799914  0.05073568  0.48509098    -0.05800
C1424       C  0.38782288  0.07884763  0.47079178    -0.05800
C1425       C  0.36168595  0.08950097  0.45741896    -0.23900
C1426       C  0.33537318  0.07210381  0.45803920     0.18300
C1427       C  0.33511564  0.04462980  0.47384986     0.15500
C1428       C  0.36127072  0.03423298  0.48722772    -0.19000
C1429       C  0.30905906  0.02722311  0.47492849    -0.20800
C1430       C  0.28376833  0.03610286  0.45944495    -0.13300
C1431       C  0.28377855  0.06268220  0.44243120     0.03300
C1432       C  0.30968047  0.08100149  0.44237602    -0.25500
H1433       H  0.40825170  0.09165076  0.46838889     0.08400
H1434       H  0.36237251  0.11073859  0.44557477     0.12000
H1435       H  0.36126951  0.01238737  0.49803731     0.11900
H1436       H  0.30838372  0.00633623  0.48732713     0.11700
H1437       H  0.26432475  0.02163265  0.46031993     0.12200
H1438       H  0.31009916  0.10176808  0.42972653     0.14200
C1439       C  0.29316770  0.92309120  0.55848504    -0.05800
C1440       C  0.29208422  0.93729810  0.53057594    -0.05800
C1441       C  0.31798452  0.94226063  0.51412194    -0.23900
C1442       C  0.34556273  0.93385340  0.52560061     0.18300
C1443       C  0.34696890  0.91888849  0.55328616     0.15500
C1444       C  0.32070883  0.91319336  0.56935205    -0.19000
C1445       C  0.37475481  0.91148743  0.56518876    -0.20800
C1446       C  0.40083381  0.92113491  0.55102414    -0.13300
C1447       C  0.39944617  0.93726142  0.52429156     0.03300
C1448       C  0.37183777  0.94224375  0.51093897    -0.25500
H1449       H  0.27116319  0.94475069  0.52144669     0.08400
H1450       H  0.31654016  0.95343094  0.49280282     0.12000
H1451       H  0.32189213  0.90227233  0.59085201     0.11900
H1452       H  0.37628696  0.90012811  0.58642560     0.11700
H1453       H  0.42193788  0.91810136  0.56209474     0.12200
H1454       H  0.37074222  0.95562311  0.49081618     0.14200
C1455       C  0.53690857  0.08132944  0.31938746    -0.05800
C1456       C  0.51760986  0.05648195  0.31576240    -0.05800
C1457       C  0.49892677  0.04748403  0.33900466    -0.23900
C1458       C  0.49957494  0.06277370  0.36651240     0.18300
C1459       C  0.51786210  0.08858154  0.37007182     0.15500
C1460       C  0.53621074  0.09786744  0.34642514    -0.19000
C1461       C  0.51865212  0.10366294  0.39773907    -0.20800
C1462       C  0.50389187  0.09144371  0.42240651    -0.13300
C1463       C  0.48762087  0.06432029  0.41962169     0.03300
C1464       C  0.48392141  0.05132575  0.39107645    -0.25500
H1465       H  0.51731503  0.04355267  0.29513048     0.08400
H1466       H  0.48463437  0.02796856  0.33576522     0.12000
H1467       H  0.55059120  0.11735346  0.34948193     0.11900
H1468       H  0.53223693  0.12373190  0.40078297     0.11700
H1469       H  0.50705689  0.10195279  0.44408394     0.12200
H1470       H  0.47159806  0.03035010  0.38849904     0.14200
C1471       C  0.50138895  0.95930085  0.40539200    -0.05800
C1472       C  0.51480074  0.97392225  0.38099711    -0.05800
C1473       C  0.50476554  0.96835827  0.35185809    -0.23900
C1474       C  0.48048603  0.94894592  0.34682876     0.18300
C1475       C  0.46851340  0.93261529  0.37108255     0.15500
C1476       C  0.47960193  0.93718366  0.39988739    -0.19000
C1477       C  0.44417437  0.91348028  0.36668522    -0.20800
C1478       C  0.43073493  0.91159138  0.33889734    -0.13300
C1479       C  0.44144396  0.92850771  0.31454401     0.03300
C1480       C  0.46699281  0.94664515  0.31850702    -0.25500
H1481       H  0.53177633  0.99099303  0.38458530     0.08400
H1482       H  0.51478257  0.98060550  0.33355168     0.12000
H1483       H  0.46916409  0.92555585  0.41839209     0.11900
H1484       H  0.43480918  0.90074744  0.38503050     0.11700
H1485       H  0.41141193  0.89708346  0.33680866     0.12200
H1486       H  0.47574300  0.95959137  0.30000870     0.14200
C1487       C  0.69544943  0.06329363  0.54607901    -0.05800
C1488       C  0.69636334  0.04805903  0.51836829    -0.05800
C1489       C  0.67053243  0.04377769  0.50154708    -0.23900
C1490       C  0.64311353  0.05421828  0.51229379     0.18300
C1491       C  0.64204845  0.07021478  0.53975582     0.15500
C1492       C  0.66817777  0.07495006  0.55625411    -0.19000
C1493       C  0.61465701  0.08012076  0.55093810    -0.20800
C1494       C  0.58843073  0.07275509  0.53600292    -0.13300
C1495       C  0.58899509  0.05578626  0.50931572     0.03300
C1496       C  0.61658511  0.04749575  0.49695449    -0.25500
H1497       H  0.71708569  0.03916184  0.50973668     0.08400
H1498       H  0.67188490  0.03153036  0.48055937     0.12000
H1499       H  0.66703567  0.08669981  0.57753720     0.11900
H1500       H  0.61337763  0.09236774  0.57192472     0.11700
H1501       H  0.56746140  0.07906548  0.54617349     0.12200
H1502       H  0.61727218  0.03372099  0.47684961     0.14200
C1503       C  0.59002190  0.95344092  0.49903621    -0.05800
C1504       C  0.58736989  0.93337723  0.47461716    -0.05800
C1505       C  0.61241973  0.92311390  0.45923149    -0.23900
C1506       C  0.64074948  0.93307018  0.46761202     0.18300
C1507       C  0.64391367  0.95251749  0.49266638     0.15500
C1508       C  0.61851853  0.96231651  0.50850775    -0.19000
C1509       C  0.67231509  0.96286826  0.50054543    -0.20800
C1510       C  0.69712421  0.95474180  0.48337400    -0.13300
C1511       C  0.69416654  0.93579767  0.45808114     0.03300
C1512       C  0.66580010  0.92467355  0.45069470    -0.25500
H1513       H  0.56566279  0.92661333  0.46656616     0.08400
H1514       H  0.60952615  0.90829835  0.44006398     0.12000
H1515       H  0.62079718  0.97850906  0.52668523     0.11900
H1516       H  0.67529164  0.97774363  0.51966277     0.11700
H1517       H  0.71864955  0.96354649  0.48983900     0.12200
H1518       H  0.66302069  0.91013396  0.43129722     0.14200
loop_ 
_geom_bond_atom_site_label_1 
_geom_bond_atom_site_label_2 
_geom_bond_distance 
_geom_bond_site_symmetry_2 
_ccdc_geom_bond_type 
O1            C9   1.285       .  A
O1          Co21   2.066   1_565  S
O2           C10   1.268       .  A
O2          Co22   1.989   1_565  S
O3           C11   1.268       .  A
O3          Co23   1.961       .  S
O4           C12   1.261       .  A
O4          Co24   1.974       .  S
O5           C11   1.284       .  A
O5          Co22   2.045   1_565  S
O6           C12   1.263       .  A
O6          Co21   2.012   1_565  S
O7           C10   1.269       .  A
O7          Co24   1.987       .  S
O8            C9   1.273       .  A
O8          Co23   1.938       .  S
C9         C1503   1.481       .  S
C10        C1447   1.462       .  S
C11        C1415   1.487       .  S
C12        C1471   1.482       .  S
O13          C26   1.270       .  A
O13         Co21   1.960       .  S
O14          C27   1.265       .  A
O14         Co22   1.975       .  S
O15          C28   1.285       .  A
O15         Co23   2.069   1_545  S
O16          C29   1.268       .  A
O16         Co24   1.998   1_545  S
O17          C29   1.275       .  A
O17         Co22   2.011       .  S
O18          C28   1.269       .  A
O18         Co21   1.932       .  S
O19          C26   1.285       .  A
O19         Co24   2.042   1_545  S
O20          C27   1.269       .  A
O20         Co23   2.026   1_545  S
Co21         O25   2.019       .  S
Co22         O25   2.022       .  S
Co23         O25   2.024   1_565  S
Co24         O25   2.021   1_565  S
C26        C1463   1.481       .  S
C27        C1399   1.487       .  S
C28        C1495   1.480       .  S
C29        C1423   1.484       .  S
O30          C38   1.266       .  A
O30         Co50   1.974       .  S
O31          C39   1.270       .  A
O31         Co51   1.948   1_655  S
O32          C40   1.291       .  A
O32         Co52   2.083   1_655  S
O33          C41   1.267   1_455  A
O33         Co53   1.987       .  S
O34          C40   1.270       .  A
O34         Co51   1.935   1_655  S
O35          C41   1.273       .  A
O35         Co50   2.003       .  S
O36          C39   1.287   1_455  A
O36         Co53   2.050       .  S
O37          C38   1.271       .  A
O37         Co52   2.021   1_655  S
C38        C1367   1.490       .  S
C39        C1343   1.477       .  S
C40        C1287   1.497       .  S
C41        C1319   1.475       .  S
O42          C55   1.271       .  A
O42         Co50   2.004   1_455  S
O43          C56   1.287       .  A
O43         Co51   2.073       .  S
O44          C57   1.268       .  A
O44         Co52   1.963       .  S
O45          C58   1.253       .  A
O45         Co53   1.961       .  S
O46          C58   1.265       .  A
O46         Co51   2.025       .  S
O47          C57   1.279       .  A
O47         Co50   2.021   1_455  S
O48          C55   1.269       .  A
O48         Co53   1.986       .  S
O49          C56   1.273       .  A
O49         Co52   1.927       .  S
Co50         O54   2.025   1_655  S
Co51         O54   2.021       .  S
Co52         O54   2.019       .  S
Co53         O54   2.007       .  S
C55        C1295   1.468       .  S
C56        C1271   1.476       .  S
C57        C1375   1.471       .  S
C58        C1327   1.481       .  S
O59          C67   1.265       .  A
O59         Co79   1.984   1_554  S
O60          C68   1.288       .  A
O60         Co80   2.077   1_554  S
O61          C69   1.262       .  A
O61         Co81   1.972       .  S
O62          C70   1.266       .  A
O62         Co82   1.956   1_554  S
O63          C69   1.265       .  A
O63         Co80   2.010   1_554  S
O64          C70   1.291       .  A
O64         Co79   2.086   1_554  S
O65          C68   1.265       .  A
O65         Co82   1.923   1_554  S
O66          C67   1.269       .  A
O66         Co81   1.996       .  S
C67        C1239   1.476       .  S
C68        C1175   1.475       .  S
C69        C1135   1.485       .  S
C70        C1207   1.503       .  S
O71          C84   1.253       .  A
O71         Co79   1.966       .  S
O72          C85   1.269       .  A
O72         Co80   1.972       .  S
O73          C86   1.271       .  A
O73         Co81   2.001   1_556  S
O74          C87   1.288       .  A
O74         Co82   2.068       .  S
O75          C87   1.270       .  A
O75         Co80   1.919       .  S
O76          C86   1.273       .  A
O76         Co79   1.998       .  S
O77          C84   1.260       .  A
O77         Co82   2.019       .  S
O78          C85   1.281       .  A
O78         Co81   2.050   1_556  S
Co79         O83   2.037       .  S
Co80         O83   2.033       .  S
Co81         O83   2.047   1_554  S
Co82         O83   2.033       .  S
C84        C1223   1.486       .  S
C85        C1151   1.498       .  S
C86        C1255   1.489       .  S
C87        C1191   1.473       .  S
C88        C1103   1.475       .  S
C88          N89   1.361       .  A
C88          N93   1.359       .  A
N89          C90   1.362       .  A
C90        C1119   1.483       .  S
C90          N91   1.361       .  A
N91          C92   1.359       .  A
C92        C1407   1.489       .  S
C92          N93   1.358       .  A
C94        C1087   1.491       .  S
C94          N95   1.364       .  A
C94          N99   1.362       .  A
N95          C96   1.363       .  A
C96        C1127   1.485       .  S
C96          N97   1.359       .  A
N97          C98   1.357       .  A
C98        C1071   1.489       .  S
C98          N99   1.360       .  A
C100       C1055   1.496       .  S
C100        N101   1.367       .  A
C100        N105   1.368       .  A
N101        C102   1.361       .  A
C102       C1359   1.493       .  S
C102        N103   1.357       .  A
N103        C104   1.357       .  A
C104       C1095   1.491       .  S
C104        N105   1.363       .  A
C106       C1047   1.467       .  S
C106        N107   1.357       .  A
C106        N111   1.353       .  A
N107        C108   1.362       .  A
C108       C1183   1.487       .  S
C108        N109   1.365       .  A
N109        C110   1.360       .  A
C110       C1079   1.475       .  S
C110        N111   1.354       .  A
C112       C1007   1.476       .  S
C112        N113   1.355       .  A
C112        N117   1.353       .  A
N113        C114   1.359       .  A
C114        C991   1.491       .  S
C114        N115   1.366       .  A
N115        C116   1.366       .  A
C116       C1023   1.483       .  S
C116        N117   1.357       .  A
C118       C1247   1.483       .  S
C118        N119   1.361       .  A
C118        N123   1.364       .  A
N119        C120   1.360       .  A
C120       C1031   1.483       .  S
C120        N121   1.357       .  A
N121        C122   1.358       .  A
C122        C983   1.489       .  S
C122        N123   1.361       .  A
C124        C959   1.494       .  S
C124        N125   1.374       .  A
C124        N129   1.361       .  A
N125        C126   1.370       .  A
C126       C1391   1.497       .  S
C126        N127   1.355       .  A
N127        C128   1.350       .  A
C128       C1015   1.473       .  S
C128        N129   1.354       .  A
C130        C943   1.490       .  S
C130        N131   1.359       .  A
C130        N135   1.365       .  A
N131        C132   1.355       .  A
C132       C1335   1.487       .  S
C132        N133   1.357       .  A
N133        C134   1.361       .  A
C134        C999   1.483       .  S
C134        N135   1.366       .  A
O136        C144   1.299   1_565  A
O136       Co156   2.085       .  S
O137        C145   1.298   1_545  A
O137       Co157   2.080       .  S
O138        C146   1.268       .  A
O138       Co158   1.968   1_554  S
O139        C147   1.270       .  A
O139       Co159   1.974       .  S
O140        C146   1.273       .  A
O140       Co157   2.024       .  S
O141        C147   1.275   1_556  A
O141       Co156   2.026       .  S
O142        C145   1.278       .  A
O142       Co159   1.908       .  S
O143        C144   1.277       .  A
O143       Co158   1.904       .  S
C144       C1111   1.476   1_545  S
C145        C879   1.473   1_565  S
C146        C927   1.497       .  S
C147        C847   1.500       .  S
O148        C161   1.264       .  A
O148       Co156   1.974   1_554  S
O149        C162   1.265       .  A
O149       Co157   1.977       .  S
O150        C163   1.259       .  A
O150       Co158   2.012       .  S
O151        C164   1.256       .  A
O151       Co159   2.000       .  S
O152        C164   1.257   1_545  A
O152       Co157   1.977       .  S
O153        C163   1.258   1_565  A
O153       Co156   1.980       .  S
O154        C161   1.271       .  A
O154       Co159   2.028       .  S
O155        C162   1.274   1_556  A
O155       Co158   2.040       .  S
Co156       O160   2.089   1_566  S
Co157       O160   2.090       .  S
Co158       O160   1.981   1_556  S
Co159       O160   1.995   1_565  S
C161        C871   1.483       .  S
C162        C919   1.491       .  S
C163        C967   1.479       .  S
C164        C895   1.468       .  S
C165        C831   1.492       .  S
C165        N166   1.367       .  A
C165        N170   1.363       .  A
N166        C167   1.364       .  A
C167        C815   1.487       .  S
C167        N168   1.355       .  A
N168        C169   1.354       .  A
C169        C799   1.480       .  S
C169        N170   1.358       .  A
C171       C1215   1.492       .  S
C171        N172   1.367       .  A
C171        N176   1.369       .  A
N172        C173   1.359       .  A
C173        C839   1.481       .  S
C173        N174   1.350       .  A
N174        C175   1.354       .  A
C175        C863   1.489       .  S
C175        N176   1.363       .  A
C177        C791   1.491       .  S
C177        N178   1.365       .  A
C177        N182   1.359       .  A
N178        C179   1.366       .  A
C179        C823   1.481       .  S
C179        N180   1.359       .  A
N180        C181   1.356       .  A
C181       C1439   1.481       .  S
C181        N182   1.356       .  A
C183        C767   1.493       .  S
C183        N184   1.358       .  A
C183        N188   1.361       .  A
N184        C185   1.359       .  A
C185       C1303   1.483       .  S
C185        N186   1.359       .  A
N186        C187   1.363       .  A
C187        C807   1.485       .  S
C187        N188   1.365       .  A
C189        C735   1.477       .  S
C189        N190   1.354       .  A
C189        N194   1.358       .  A
N190        C191   1.355       .  A
C191        C727   1.481       .  S
C191        N192   1.359       .  A
N192        C193   1.362       .  A
C193        C751   1.479       .  S
C193        N194   1.363       .  A
C195       C1351   1.481       .  S
C195        N196   1.359       .  A
C195        N200   1.356       .  A
N196        C197   1.360       .  A
C197        C759   1.479       .  S
C197        N198   1.359       .  A
N198        C199   1.358       .  A
C199        C703   1.479       .  S
C199        N200   1.356       .  A
C201        C687   1.492       .  S
C201        N202   1.367       .  A
C201        N206   1.364       .  A
N202        C203   1.362       .  A
C203       C1167   1.487       .  S
C203        N204   1.355       .  A
N204        C205   1.354       .  A
C205        C743   1.481       .  S
C205        N206   1.360       .  A
C207        C887   1.481       .  S
C207        N208   1.359       .  A
C207        N212   1.358       .  A
N208        C209   1.362       .  A
C209       C1455   1.484       .  S
C209        N210   1.360       .  A
N210        C211   1.356       .  A
C211        C719   1.476       .  S
C211        N212   1.358       .  A
O213        C221   1.267       .  A
O213       Co233   1.979       .  S
O214        C222   1.292       .  A
O214       Co234   2.081   1_556  S
O215        C223   1.259   1_655  A
O215       Co235   1.967       .  S
O216        C224   1.266       .  A
O216       Co236   1.958       .  S
O217        C223   1.265       .  A
O217       Co234   2.024       .  S
O218        C224   1.286   1_655  A
O218       Co233   2.062       .  S
O219        C222   1.268       .  A
O219       Co236   1.917       .  S
O220        C221   1.269       .  A
O220       Co235   1.982   1_556  S
C221       C1039   1.464       .  S
C222        C679   1.481       .  S
C223        C647   1.492       .  S
C224        C775   1.489       .  S
O225        C238   1.259       .  A
O225       Co233   1.967   1_455  S
O226        C239   1.267   1_455  A
O226       Co234   1.960       .  S
O227        C240   1.265   1_554  A
O227       Co235   1.984       .  S
O228        C241   1.292       .  A
O228       Co236   2.083       .  S
O229        C241   1.267   1_554  A
O229       Co234   1.915       .  S
O230        C240   1.273       .  A
O230       Co233   2.006       .  S
O231        C238   1.266       .  A
O231       Co236   2.022       .  S
O232        C239   1.282       .  A
O232       Co235   2.040       .  S
Co233       O237   2.037       .  S
Co234       O237   2.023   1_454  S
Co235       O237   2.039   1_554  S
Co236       O237   2.026   1_455  S
C238        C631   1.492       .  S
C239        C655   1.483   1_655  S
C240        C695   1.473   1_556  S
C241        C975   1.478       .  S
C242        C591   1.502       .  S
C242        N243   1.362       .  A
C242        N247   1.362       .  A
N243        C244   1.367       .  A
C244       C1431   1.497       .  S
C244        N245   1.363       .  A
N245        C246   1.362       .  A
C246        C615   1.491       .  S
C246        N247   1.363       .  A
C248        C607   1.487       .  S
C248        N249   1.359       .  A
C248        N253   1.360       .  A
N249        C250   1.359       .  A
C250        C583   1.479       .  S
C250        N251   1.360       .  A
N251        C252   1.361       .  A
C252        C559   1.482       .  S
C252        N253   1.362       .  A
C254        C663   1.487       .  S
C254        N255   1.361       .  A
C254        N259   1.359       .  A
N255        C256   1.361       .  A
C256       C1263   1.489       .  S
C256        N257   1.361       .  A
N257        C258   1.360       .  A
C258        C575   1.482       .  S
C258        N259   1.358       .  A
C260        C911   1.497       .  S
C260        N261   1.371       .  A
C260        N265   1.360       .  A
N261        C262   1.374       .  A
C262       C1143   1.490       .  S
C262        N263   1.360       .  A
N263        C264   1.349       .  A
C264        C567   1.480       .  S
C264        N265   1.350       .  A
C266        C543   1.479       .  S
C266        N267   1.358       .  A
C266        N271   1.360       .  A
N267        C268   1.357       .  A
C268        C527   1.482       .  S
C268        N269   1.360       .  A
N269        C270   1.363       .  A
C270        C511   1.489       .  S
C270        N271   1.362       .  A
C272       C1311   1.490       .  S
C272        N273   1.369       .  A
C272        N277   1.358       .  A
N273        C274   1.366       .  A
C274        C623   1.497       .  S
C274        N275   1.360       .  A
N275        C276   1.357       .  A
C276        C551   1.482       .  S
C276        N277   1.355       .  A
C278       C1159   1.501       .  S
C278        N279   1.369       .  A
C278        N283   1.364       .  A
N279        C280   1.368       .  A
C280        C935   1.498       .  S
C280        N281   1.358       .  A
N281        C282   1.358       .  A
C282        C535   1.484       .  S
C282        N283   1.360       .  A
C284       C1487   1.489       .  S
C284        N285   1.362       .  A
C284        N289   1.362       .  A
N285        C286   1.361       .  A
C286        C503   1.494       .  S
C286        N287   1.362       .  A
N287        C288   1.362       .  A
C288        C519   1.487       .  S
C288        N289   1.361       .  A
C290        C455   1.500       .  S
C290        N291   1.365       .  A
C290        N295   1.369       .  A
N291        C292   1.361       .  A
C292        C463   1.494       .  S
C292        N293   1.357       .  A
N293        C294   1.360       .  A
C294        C487   1.491       .  S
C294        N295   1.367       .  A
C296       C1511   1.490       .  S
C296        N297   1.356       .  A
C296        N301   1.360       .  A
N297        C298   1.359       .  A
C298        C431   1.492       .  S
C298        N299   1.366       .  A
N299        C300   1.367       .  A
C300        C479   1.496       .  S
C300        N301   1.363       .  A
C302        C639   1.498       .  S
C302        N303   1.359       .  A
C302        N307   1.370       .  A
N303        C304   1.355       .  A
C304        C471   1.493       .  S
C304        N305   1.358       .  A
N305        C306   1.366       .  A
C306       C1279   1.493       .  S
C306        N307   1.370       .  A
C308        C855   1.501       .  S
C308        N309   1.366       .  A
C308        N313   1.360       .  A
N309        C310   1.367       .  A
C310       C1199   1.504       .  S
C310        N311   1.367       .  A
N311        C312   1.366       .  A
C312        C447   1.493       .  S
C312        N313   1.361       .  A
C314        C399   1.480       .  S
C314        N315   1.353       .  A
C314        N319   1.361       .  A
N315        C316   1.353       .  A
C316        C415   1.477       .  S
C316        N317   1.355       .  A
N317        C318   1.359       .  A
C318        C391   1.476       .  S
C318        N319   1.363       .  A
C320       C1479   1.489       .  S
C320        N321   1.355       .  A
C320        N325   1.367       .  A
N321        C322   1.348       .  A
C322        C423   1.461       .  S
C322        N323   1.350       .  A
N323        C324   1.358       .  A
C324        C903   1.485       .  S
C324        N325   1.370       .  A
C326       C1383   1.476       .  S
C326        N327   1.356       .  A
C326        N331   1.357       .  A
N327        C328   1.356       .  A
C328        C407   1.479       .  S
C328        N329   1.361       .  A
N329        C330   1.361       .  A
C330        C375   1.480       .  S
C330        N331   1.357       .  A
C332       C1231   1.489       .  S
C332        N333   1.360       .  A
C332        N337   1.369       .  A
N333        C334   1.356       .  A
C334        C383   1.477       .  S
C334        N335   1.350       .  A
N335        C336   1.355       .  A
C336        C671   1.487       .  S
C336        N337   1.365       .  A
O338        C346   1.289   1_655  A
O338       Co358   2.075       .  S
O339        C347   1.267       .  A
O339       Co359   1.992       .  S
O340        C348   1.268       .  A
O340       Co360   1.959       .  S
O341        C349   1.256       .  A
O341       Co361   1.962   1_565  S
O342        C348   1.285   1_545  A
O342       Co359   2.048       .  S
O343        C349   1.268       .  A
O343       Co358   2.040       .  S
O344        C347   1.269   1_655  A
O344       Co361   1.994       .  S
O345        C346   1.270       .  A
O345       Co360   1.927       .  S
C346       C1063   1.479   1_455  S
C347        C951   1.468       .  S
C348        C783   1.484       .  S
C349        C495   1.491       .  S
O350        C363   1.265       .  A
O350       Co358   1.955       .  S
O351        C364   1.258       .  A
O351       Co359   1.968   1_565  S
O352        C365   1.290   1_455  A
O352       Co360   2.070       .  S
O353        C366   1.267       .  A
O353       Co361   1.984       .  S
O354        C366   1.268       .  A
O354       Co359   1.985   1_655  S
O355        C365   1.271       .  A
O355       Co358   1.919       .  S
O356        C363   1.285   1_545  A
O356       Co361   2.058       .  S
O357        C364   1.268       .  A
O357       Co360   2.036       .  S
Co358       O362   2.026       .  S
Co359       O362   2.027   1_445  S
Co360       O362   2.017   1_455  S
Co361       O362   2.022   1_545  S
C363        C439   1.488       .  S
C364        C599   1.498       .  S
C365        C367   1.477       .  S
C366        C711   1.457       .  S
C367        C368   1.405       .  A
C367        C372   1.406   1_655  A
C368        C369   1.401       .  A
C368        H377   1.083       .  S
C369        C370   1.405   1_655  A
C369        H378   1.083       .  S
C370        C376   1.405       .  A
C370        C371   1.412       .  A
C371        C373   1.402       .  A
C371        C372   1.400       .  A
C372        H379   1.084       .  S
C373        C374   1.395       .  A
C373        H380   1.083       .  S
C374        C375   1.404       .  A
C374        H381   1.084       .  S
C375        C376   1.410       .  A
C376        H382   1.083       .  S
C383        C384   1.407       .  A
C383        C388   1.404       .  A
C384        C385   1.396       .  A
C384        H393   1.083       .  S
C385        C386   1.400       .  A
C385        H394   1.083       .  S
C386        C392   1.403       .  A
C386        C387   1.415       .  A
C387        C389   1.400       .  A
C387        C388   1.402       .  A
C388        H395   1.084       .  S
C389        C390   1.395       .  A
C389        H396   1.083       .  S
C390        C391   1.406       .  A
C390        H397   1.083       .  S
C391        C392   1.404       .  A
C392        H398   1.084       .  S
C399        C400   1.408       .  A
C399        C404   1.405       .  A
C400        C401   1.394       .  A
C400        H409   1.083       .  S
C401        C402   1.399       .  A
C401        H410   1.083       .  S
C402        C408   1.403       .  A
C402        C403   1.415       .  A
C403        C405   1.401       .  A
C403        C404   1.406       .  A
C404        H411   1.084       .  S
C405        C406   1.397       .  A
C405        H412   1.083       .  S
C406        C407   1.407       .  A
C406        H413   1.083       .  S
C407        C408   1.403       .  A
C408        H414   1.084       .  S
C415        C416   1.406       .  A
C415        C420   1.405       .  A
C416        C417   1.398       .  A
C416        H425   1.083       .  S
C417        C418   1.403       .  A
C417        H426   1.083       .  S
C418        C424   1.401       .  A
C418        C419   1.414       .  A
C419        C421   1.401       .  A
C419        C420   1.395       .  A
C420        H427   1.084       .  S
C421        C422   1.392       .  A
C421        H428   1.083       .  S
C422        C423   1.401       .  A
C422        H429   1.084       .  S
C423        C424   1.402       .  A
C424        H430   1.084       .  S
C431        C432   1.410       .  A
C431        C436   1.409       .  A
C432        C433   1.397       .  A
C432        H441   1.084       .  S
C433        C434   1.399       .  A
C433        H442   1.083   1_565  S
C434        C440   1.408       .  A
C434        C435   1.415       .  A
C435        C437   1.401       .  A
C435        C436   1.411       .  A
C436        H443   1.083       .  S
C437        C438   1.399       .  A
C437        H444   1.082       .  S
C438        C439   1.410       .  A
C438        H445   1.083       .  S
C439        C440   1.407       .  A
C440        H446   1.084   1_565  S
C447        C448   1.408       .  A
C447        C452   1.409       .  A
C448        C449   1.402       .  A
C448        H457   1.083       .  S
C449        C450   1.403       .  A
C449        H458   1.084       .  S
C450        C456   1.415       .  A
C450        C451   1.415       .  A
C451        C453   1.402       .  A
C451        C452   1.414       .  A
C452        H459   1.084       .  S
C453        C454   1.401       .  A
C453        H460   1.084       .  S
C454        C455   1.410       .  A
C454        H461   1.083       .  S
C455        C456   1.411       .  A
C456        H462   1.084       .  S
C463        C464   1.409       .  A
C463        C468   1.408       .  A
C464        C465   1.402       .  A
C464        H473   1.082       .  S
C465        C466   1.403       .  A
C465        H474   1.083       .  S
C466        C472   1.414       .  A
C466        C467   1.414       .  A
C467        C469   1.400       .  A
C467        C468   1.410       .  A
C468        H475   1.084       .  S
C469        C470   1.398       .  A
C469        H476   1.084       .  S
C470        C471   1.408       .  A
C470        H477   1.083       .  S
C471        C472   1.411       .  A
C472        H478   1.084       .  S
C479        C480   1.410       .  A
C479        C484   1.409       .  A
C480        C481   1.402       .  A
C480        H489   1.082       .  S
C481        C482   1.403       .  A
C481        H490   1.084       .  S
C482        C488   1.415       .  A
C482        C483   1.415       .  A
C483        C485   1.401       .  A
C483        C484   1.411       .  A
C484        H491   1.084       .  S
C485        C486   1.398       .  A
C485        H492   1.084       .  S
C486        C487   1.408       .  A
C486        H493   1.083       .  S
C487        C488   1.409       .  A
C488        H494   1.084       .  S
C495        C496   1.408   1_565  A
C495        C500   1.412       .  A
C496        C497   1.396       .  A
C496        H505   1.084       .  S
C497        C498   1.400       .  A
C497        H506   1.083       .  S
C498        C504   1.407       .  A
C498        C499   1.414   1_545  A
C499        C501   1.404       .  A
C499        C500   1.414       .  A
C500        H507   1.084       .  S
C501        C502   1.403   1_565  A
C501        H508   1.082       .  S
C502        C503   1.410       .  A
C502        H509   1.083       .  S
C503        C504   1.408       .  A
C504        H510   1.083       .  S
C511        C512   1.407       .  A
C511        C516   1.409       .  A
C512        C513   1.400       .  A
C512        H521   1.083       .  S
C513        C514   1.403       .  A
C513        H522   1.084       .  S
C514        C520   1.409       .  A
C514        C515   1.414       .  A
C515        C517   1.402       .  A
C515        C516   1.408       .  A
C516        H523   1.084       .  S
C517        C518   1.399       .  A
C517        H524   1.084       .  S
C518        C519   1.406       .  A
C518        H525   1.083       .  S
C519        C520   1.409       .  A
C520        H526   1.084       .  S
C527        C528   1.406       .  A
C527        C532   1.405       .  A
C528        C529   1.400       .  A
C528        H537   1.084       .  S
C529        C530   1.403       .  A
C529        H538   1.082       .  S
C530        C536   1.409       .  A
C530        C531   1.415       .  A
C531        C533   1.401       .  A
C531        C532   1.406       .  A
C532        H539   1.083       .  S
C533        C534   1.397       .  A
C533        H540   1.083       .  S
C534        C535   1.406       .  A
C534        H541   1.083       .  S
C535        C536   1.408       .  A
C536        H542   1.083       .  S
C543        C544   1.405       .  A
C543        C548   1.407       .  A
C544        C545   1.395       .  A
C544        H553   1.083       .  S
C545        C546   1.400       .  A
C545        H554   1.083       .  S
C546        C552   1.402       .  A
C546        C547   1.414       .  A
C547        C549   1.403       .  A
C547        C548   1.407       .  A
C548        H555   1.084       .  S
C549        C550   1.400       .  A
C549        H556   1.083       .  S
C550        C551   1.407       .  A
C550        H557   1.083       .  S
C551        C552   1.405       .  A
C552        H558   1.084       .  S
C559        C560   1.407       .  A
C559        C564   1.405       .  A
C560        C561   1.401       .  A
C560        H569   1.082       .  S
C561        C562   1.404       .  A
C561        H570   1.083       .  S
C562        C568   1.407       .  A
C562        C563   1.414       .  A
C563        C565   1.401       .  A
C563        C564   1.402       .  A
C564        H571   1.084       .  S
C565        C566   1.395       .  A
C565        H572   1.084       .  S
C566        C567   1.405       .  A
C566        H573   1.083       .  S
C567        C568   1.409       .  A
C568        H574   1.084       .  S
C575        C576   1.406       .  A
C575        C580   1.406       .  A
C576        C577   1.399       .  A
C576        H585   1.083       .  S
C577        C578   1.402       .  A
C577        H586   1.083       .  S
C578        C584   1.407       .  A
C578        C579   1.414       .  A
C579        C581   1.402       .  A
C579        C580   1.406       .  A
C580        H587   1.084       .  S
C581        C582   1.398       .  A
C581        H588   1.083       .  S
C582        C583   1.405       .  A
C582        H589   1.083       .  S
C583        C584   1.406       .  A
C584        H590   1.084       .  S
C591        C592   1.409       .  A
C591        C596   1.415       .  A
C592        C593   1.400       .  A
C592        H601   1.083       .  S
C593        C594   1.403       .  A
C593        H602   1.083       .  S
C594        C600   1.411       .  A
C594        C595   1.412       .  A
C595        C597   1.406   1_545  A
C595        C596   1.416       .  A
C596        H603   1.083       .  S
C597        C598   1.406       .  A
C597        H604   1.083       .  S
C598        C599   1.408       .  A
C598        H605   1.083       .  S
C599        C600   1.412   1_565  A
C600        H606   1.084       .  S
C607        C608   1.407       .  A
C607        C612   1.408       .  A
C608        C609   1.402       .  A
C608        H617   1.083       .  S
C609        C610   1.405       .  A
C609        H618   1.084       .  S
C610        C616   1.411       .  A
C610        C611   1.413       .  A
C611        C613   1.402       .  A
C611        C612   1.406       .  A
C612        H619   1.084       .  S
C613        C614   1.398       .  A
C613        H620   1.083       .  S
C614        C615   1.407       .  A
C614        H621   1.083       .  S
C615        C616   1.411       .  A
C616        H622   1.084       .  S
C623        C624   1.410       .  A
C623        C628   1.412       .  A
C624        C625   1.397       .  A
C624        H633   1.083       .  S
C625        C626   1.400       .  A
C625        H634   1.083       .  S
C626        C632   1.408       .  A
C626        C627   1.414       .  A
C627        C629   1.404   1_655  A
C627        C628   1.414       .  A
C628        H635   1.083       .  S
C629        C630   1.403       .  A
C629        H636   1.083       .  S
C630        C631   1.408       .  A
C630        H637   1.083       .  S
C631        C632   1.409   1_455  A
C632        H638   1.084       .  S
C639        C640   1.411       .  A
C639        C644   1.412       .  A
C640        C641   1.396       .  A
C640        H649   1.083       .  S
C641        C642   1.399       .  A
C641        H650   1.083       .  S
C642        C648   1.408       .  A
C642        C643   1.414       .  A
C643        C645   1.406   1_655  A
C643        C644   1.417       .  A
C644        H651   1.084       .  S
C645        C646   1.405       .  A
C645        H652   1.083       .  S
C646        C647   1.407       .  A
C646        H653   1.084       .  S
C647        C648   1.409   1_455  A
C648        H654   1.084       .  S
C655        C656   1.408       .  A
C655        C660   1.409   1_455  A
C656        C657   1.398       .  A
C656        H665   1.083       .  S
C657        C658   1.402       .  A
C657        H666   1.083       .  S
C658        C664   1.404       .  A
C658        C659   1.412       .  A
C659        C661   1.402       .  A
C659        C660   1.404   1_455  A
C660        H667   1.084       .  S
C661        C662   1.398       .  A
C661        H668   1.084   1_455  S
C662        C663   1.407       .  A
C662        H669   1.083       .  S
C663        C664   1.409       .  A
C664        H670   1.084       .  S
C671        C672   1.409       .  A
C671        C676   1.411       .  A
C672        C673   1.389       .  A
C672        H681   1.083       .  S
C673        C674   1.395       .  A
C673        H682   1.083       .  S
C674        C680   1.399       .  A
C674        C675   1.414       .  A
C675        C677   1.406   1_554  A
C675        C676   1.413       .  A
C676        H683   1.083       .  S
C677        C678   1.405       .  A
C677        H684   1.083       .  S
C678        C679   1.408       .  A
C678        H685   1.083       .  S
C679        C680   1.402   1_556  A
C680        H686   1.084       .  S
C687        C688   1.407       .  A
C687        C692   1.414       .  A
C688        C689   1.398       .  A
C688        H697   1.082       .  S
C689        C690   1.402       .  A
C689        H698   1.084   1_554  S
C690        C696   1.404   1_554  A
C690        C691   1.412       .  A
C691        C693   1.407       .  A
C691        C692   1.410       .  A
C692        H699   1.084       .  S
C693        C694   1.404       .  A
C693        H700   1.083       .  S
C694        C695   1.403       .  A
C694        H701   1.084       .  S
C695        C696   1.407   1_554  A
C696        H702   1.085       .  S
C703        C704   1.407       .  A
C703        C708   1.408       .  A
C704        C705   1.393       .  A
C704        H713   1.083       .  S
C705        C706   1.399       .  A
C705        H714   1.084   1_655  S
C706        C712   1.398       .  A
C706        C707   1.414       .  A
C707        C709   1.405       .  A
C707        C708   1.404       .  A
C708        H715   1.084       .  S
C709        C710   1.400       .  A
C709        H716   1.084       .  S
C710        C711   1.401       .  A
C710        H717   1.083       .  S
C711        C712   1.400       .  A
C712        H718   1.086   1_655  S
C719        C720   1.405       .  A
C719        C724   1.402       .  A
C720        C721   1.400       .  A
C720        H729   1.083       .  S
C721        C722   1.404       .  A
C721        H730   1.083       .  S
C722        C728   1.407       .  A
C722        C723   1.414       .  A
C723        C725   1.398       .  A
C723        C724   1.401       .  A
C724        H731   1.084       .  S
C725        C726   1.393       .  A
C725        H732   1.083       .  S
C726        C727   1.407       .  A
C726        H733   1.083       .  S
C727        C728   1.408       .  A
C728        H734   1.083       .  S
C735        C736   1.404       .  A
C735        C740   1.408       .  A
C736        C737   1.392       .  A
C736        H745   1.084       .  S
C737        C738   1.399       .  A
C737        H746   1.083       .  S
C738        C744   1.399       .  A
C738        C739   1.414       .  A
C739        C741   1.405       .  A
C739        C740   1.409       .  A
C740        H747   1.084       .  S
C741        C742   1.403       .  A
C741        H748   1.083       .  S
C742        C743   1.405       .  A
C742        H749   1.083       .  S
C743        C744   1.405       .  A
C744        H750   1.084       .  S
C751        C752   1.405       .  A
C751        C756   1.407       .  A
C752        C753   1.396       .  A
C752        H761   1.083       .  S
C753        C754   1.401       .  A
C753        H762   1.083       .  S
C754        C760   1.402       .  A
C754        C755   1.414       .  A
C755        C757   1.403       .  A
C755        C756   1.405       .  A
C756        H763   1.083       .  S
C757        C758   1.398       .  A
C757        H764   1.082       .  S
C758        C759   1.406       .  A
C758        H765   1.083       .  S
C759        C760   1.405       .  A
C760        H766   1.084       .  S
C767        C768   1.409       .  A
C767        C772   1.410       .  A
C768        C769   1.398       .  A
C768        H777   1.083       .  S
C769        C770   1.401       .  A
C769        H778   1.083       .  S
C770        C776   1.409       .  A
C770        C771   1.414       .  A
C771        C773   1.402       .  A
C771        C772   1.411       .  A
C772        H779   1.083       .  S
C773        C774   1.400       .  A
C773        H780   1.083       .  S
C774        C775   1.409       .  A
C774        H781   1.083       .  S
C775        C776   1.408       .  A
C776        H782   1.083   1_455  S
C783        C784   1.408       .  A
C783        C788   1.407       .  A
C784        C785   1.400       .  A
C784        H793   1.083       .  S
C785        C786   1.403       .  A
C785        H794   1.083       .  S
C786        C792   1.410       .  A
C786        C787   1.414       .  A
C787        C789   1.399       .  A
C787        C788   1.405       .  A
C788        H795   1.084   1_565  S
C789        C790   1.395       .  A
C789        H796   1.084   1_565  S
C790        C791   1.410       .  A
C790        H797   1.083       .  S
C791        C792   1.409       .  A
C792        H798   1.084       .  S
C799        C800   1.406       .  A
C799        C804   1.405       .  A
C800        C801   1.396       .  A
C800        H809   1.083       .  S
C801        C802   1.401       .  A
C801        H810   1.083       .  S
C802        C808   1.406       .  A
C802        C803   1.415       .  A
C803        C805   1.401       .  A
C803        C804   1.407       .  A
C804        H811   1.083       .  S
C805        C806   1.399       .  A
C805        H812   1.083       .  S
C806        C807   1.407       .  A
C806        H813   1.083       .  S
C807        C808   1.408       .  A
C808        H814   1.083       .  S
C815        C816   1.405       .  A
C815        C820   1.411       .  A
C816        C817   1.402       .  A
C816        H825   1.083       .  S
C817        C818   1.406       .  A
C817        H826   1.083       .  S
C818        C824   1.406       .  A
C818        C819   1.412       .  A
C819        C821   1.404       .  A
C819        C820   1.404       .  A
C820        H827   1.084       .  S
C821        C822   1.399       .  A
C821        H828   1.083       .  S
C822        C823   1.404       .  A
C822        H829   1.083       .  S
C823        C824   1.410       .  A
C824        H830   1.084       .  S
C831        C832   1.410       .  A
C831        C836   1.407       .  A
C832        C833   1.400       .  A
C832        H841   1.083       .  S
C833        C834   1.401       .  A
C833        H842   1.083       .  S
C834        C840   1.411       .  A
C834        C835   1.416       .  A
C835        C837   1.400       .  A
C835        C836   1.408       .  A
C836        H843   1.084       .  S
C837        C838   1.396       .  A
C837        H844   1.084       .  S
C838        C839   1.407       .  A
C838        H845   1.083       .  S
C839        C840   1.405       .  A
C840        H846   1.084       .  S
C847        C848   1.407       .  A
C847        C852   1.417   1_554  A
C848        C849   1.404       .  A
C848        H857   1.083       .  S
C849        C850   1.406       .  A
C849        H858   1.084       .  S
C850        C856   1.412       .  A
C850        C851   1.411       .  A
C851        C853   1.405       .  A
C851        C852   1.412   1_554  A
C852        H859   1.085       .  S
C853        C854   1.403       .  A
C853        H860   1.084   1_554  S
C854        C855   1.408       .  A
C854        H861   1.082       .  S
C855        C856   1.415       .  A
C856        H862   1.084       .  S
C863        C864   1.410       .  A
C863        C868   1.412       .  A
C864        C865   1.389       .  A
C864        H873   1.083       .  S
C865        C866   1.395       .  A
C865        H874   1.084       .  S
C866        C872   1.399   1_556  A
C866        C867   1.414       .  A
C867        C869   1.405   1_556  A
C867        C868   1.414       .  A
C868        H875   1.083       .  S
C869        C870   1.405       .  A
C869        H876   1.083       .  S
C870        C871   1.407       .  A
C870        H877   1.083       .  S
C871        C872   1.403       .  A
C872        H878   1.085       .  S
C879        C880   1.404   1_545  A
C879        C884   1.403       .  A
C880        C881   1.404       .  A
C880        H889   1.082       .  S
C881        C882   1.407   1_565  A
C881        H890   1.083       .  S
C882        C888   1.409       .  A
C882        C883   1.413       .  A
C883        C885   1.400       .  A
C883        C884   1.399       .  A
C884        H891   1.085       .  S
C885        C886   1.394       .  A
C885        H892   1.083       .  S
C886        C887   1.405       .  A
C886        H893   1.083       .  S
C887        C888   1.410       .  A
C888        H894   1.084       .  S
C895        C896   1.402       .  A
C895        C900   1.407   1_565  A
C896        C897   1.400       .  A
C896        H905   1.084       .  S
C897        C898   1.406       .  A
C897        H906   1.083       .  S
C898        C904   1.403       .  A
C898        C899   1.411       .  A
C899        C901   1.405       .  A
C899        C900   1.405   1_565  A
C900        H907   1.085       .  S
C901        C902   1.400       .  A
C901        H908   1.083   1_565  S
C902        C903   1.404       .  A
C902        H909   1.083       .  S
C903        C904   1.412       .  A
C904        H910   1.084       .  S
C911        C912   1.411       .  A
C911        C916   1.414       .  A
C912        C913   1.389       .  A
C912        H921   1.083       .  S
C913        C914   1.394       .  A
C913        H922   1.084       .  S
C914        C920   1.403       .  A
C914        C915   1.414       .  A
C915        C917   1.406       .  A
C915        C916   1.421       .  A
C916        H923   1.084       .  S
C917        C918   1.409   1_554  A
C917        H924   1.082       .  S
C918        C919   1.408   1_556  A
C918        H925   1.081       .  S
C919        C920   1.404       .  A
C920        H926   1.085       .  S
C927        C928   1.408   1_554  A
C927        C932   1.416       .  A
C928        C929   1.403       .  A
C928        H937   1.082       .  S
C929        C930   1.405       .  A
C929        H938   1.084       .  S
C930        C936   1.411       .  A
C930        C931   1.411   1_556  A
C931        C933   1.405       .  A
C931        C932   1.411       .  A
C932        H939   1.085       .  S
C933        C934   1.403       .  A
C933        H940   1.084       .  S
C934        C935   1.406   1_554  A
C934        H941   1.082       .  S
C935        C936   1.415       .  A
C936        H942   1.084       .  S
C943        C944   1.410       .  A
C943        C948   1.410       .  A
C944        C945   1.394       .  A
C944        H953   1.082       .  S
C945        C946   1.398       .  A
C945        H954   1.084   1_455  S
C946        C952   1.403       .  A
C946        C947   1.415       .  A
C947        C949   1.406       .  A
C947        C948   1.412       .  A
C948        H955   1.084       .  S
C949        C950   1.403       .  A
C949        H956   1.084       .  S
C950        C951   1.402       .  A
C950        H957   1.084       .  S
C951        C952   1.403       .  A
C952        H958   1.086   1_455  S
C959        C960   1.405       .  A
C959        C964   1.414       .  A
C960        C961   1.403       .  A
C960        H969   1.083       .  S
C961        C962   1.405       .  A
C961        H970   1.081   1_545  S
C962        C968   1.410       .  A
C962        C963   1.411       .  A
C963        C965   1.405       .  A
C963        C964   1.408       .  A
C964        H971   1.085       .  S
C965        C966   1.402       .  A
C965        H972   1.085       .  S
C966        C967   1.404       .  A
C966        H973   1.083       .  S
C967        C968   1.410       .  A
C968        H974   1.083   1_545  S
C975        C976   1.407   1_556  A
C975        C980   1.404       .  A
C976        C977   1.401   1_554  A
C976        H985   1.083       .  S
C977        C978   1.404       .  A
C977        H986   1.083   1_556  S
C978        C984   1.410       .  A
C978        C979   1.414       .  A
C979        C981   1.399       .  A
C979        C980   1.404       .  A
C980        H987   1.084       .  S
C981        C982   1.395       .  A
C981        H988   1.083       .  S
C982        C983   1.408       .  A
C982        H989   1.083       .  S
C983        C984   1.410       .  A
C984        H990   1.083       .  S
C991        C992   1.410       .  A
C991        C996   1.408       .  A
C992        C993   1.398       .  A
C992       H1001   1.083       .  S
C993        C994   1.400       .  A
C993       H1002   1.083       .  S
C994       C1000   1.410       .  A
C994        C995   1.415       .  A
C995        C997   1.401       .  A
C995        C996   1.410       .  A
C996       H1003   1.083       .  S
C997        C998   1.398       .  A
C997       H1004   1.083       .  S
C998        C999   1.406       .  A
C998       H1005   1.083       .  S
C999       C1000   1.406       .  A
C1000      H1006   1.083       .  S
C1007      C1008   1.404       .  A
C1007      C1012   1.408       .  A
C1008      C1009   1.394       .  A
C1008      H1017   1.084       .  S
C1009      C1010   1.401       .  A
C1009      H1018   1.083       .  S
C1010      C1016   1.399       .  A
C1010      C1011   1.413       .  A
C1011      C1013   1.405       .  A
C1011      C1012   1.404       .  A
C1012      H1019   1.083       .  S
C1013      C1014   1.400       .  A
C1013      H1020   1.082       .  S
C1014      C1015   1.403       .  A
C1014      H1021   1.084       .  S
C1015      C1016   1.404       .  A
C1016      H1022   1.084       .  S
C1023      C1024   1.409       .  A
C1023      C1028   1.405       .  A
C1024      C1025   1.397       .  A
C1024      H1033   1.083       .  S
C1025      C1026   1.400       .  A
C1025      H1034   1.083       .  S
C1026      C1032   1.406       .  A
C1026      C1027   1.415       .  A
C1027      C1029   1.401       .  A
C1027      C1028   1.406       .  A
C1028      H1035   1.084       .  S
C1029      C1030   1.397       .  A
C1029      H1036   1.083       .  S
C1030      C1031   1.407       .  A
C1030      H1037   1.083       .  S
C1031      C1032   1.406       .  A
C1032      H1038   1.083       .  S
C1039      C1040   1.402       .  A
C1039      C1044   1.402       .  A
C1040      C1041   1.400       .  A
C1040      H1049   1.083   1_556  S
C1041      C1042   1.405       .  A
C1041      H1050   1.083       .  S
C1042      C1048   1.405       .  A
C1042      C1043   1.415       .  A
C1043      C1045   1.401       .  A
C1043      C1044   1.398       .  A
C1044      H1051   1.085       .  S
C1045      C1046   1.393       .  A
C1045      H1052   1.083       .  S
C1046      C1047   1.402       .  A
C1046      H1053   1.084       .  S
C1047      C1048   1.404       .  A
C1048      H1054   1.084       .  S
C1055      C1056   1.409       .  A
C1055      C1060   1.411       .  A
C1056      C1057   1.400       .  A
C1056      H1065   1.083       .  S
C1057      C1058   1.402       .  A
C1057      H1066   1.083   1_655  S
C1058      C1064   1.409   1_655  A
C1058      C1059   1.414       .  A
C1059      C1061   1.404       .  A
C1059      C1060   1.411       .  A
C1060      H1067   1.083       .  S
C1061      C1062   1.401       .  A
C1061      H1068   1.083       .  S
C1062      C1063   1.404       .  A
C1062      H1069   1.084       .  S
C1063      C1064   1.407   1_655  A
C1064      H1070   1.084       .  S
C1071      C1072   1.409       .  A
C1071      C1076   1.407       .  A
C1072      C1073   1.400       .  A
C1072      H1081   1.083       .  S
C1073      C1074   1.402       .  A
C1073      H1082   1.083       .  S
C1074      C1080   1.408       .  A
C1074      C1075   1.415       .  A
C1075      C1077   1.401       .  A
C1075      C1076   1.404       .  A
C1076      H1083   1.084       .  S
C1077      C1078   1.395       .  A
C1077      H1084   1.084       .  S
C1078      C1079   1.404       .  A
C1078      H1085   1.083       .  S
C1079      C1080   1.405       .  A
C1080      H1086   1.084       .  S
C1087      C1088   1.408       .  A
C1087      C1092   1.408       .  A
C1088      C1089   1.404       .  A
C1088      H1097   1.083       .  S
C1089      C1090   1.405       .  A
C1089      H1098   1.083       .  S
C1090      C1096   1.414       .  A
C1090      C1091   1.414       .  A
C1091      C1093   1.399       .  A
C1091      C1092   1.406       .  A
C1092      H1099   1.084       .  S
C1093      C1094   1.395       .  A
C1093      H1100   1.084       .  S
C1094      C1095   1.408       .  A
C1094      H1101   1.083       .  S
C1095      C1096   1.411       .  A
C1096      H1102   1.084       .  S
C1103      C1104   1.401       .  A
C1103      C1108   1.410       .  A
C1104      C1105   1.391       .  A
C1104      H1113   1.083       .  S
C1105      C1106   1.399       .  A
C1105      H1114   1.082       .  S
C1106      C1112   1.397       .  A
C1106      C1107   1.413       .  A
C1107      C1109   1.409       .  A
C1107      C1108   1.412       .  A
C1108      H1115   1.082       .  S
C1109      C1110   1.406   1_565  A
C1109      H1116   1.081   1_565  S
C1110      C1111   1.403   1_545  A
C1110      H1117   1.084       .  S
C1111      C1112   1.403       .  A
C1112      H1118   1.083       .  S
C1119      C1120   1.406       .  A
C1119      C1124   1.407       .  A
C1120      C1121   1.399       .  A
C1120      H1129   1.083       .  S
C1121      C1122   1.402       .  A
C1121      H1130   1.084       .  S
C1122      C1128   1.409       .  A
C1122      C1123   1.415       .  A
C1123      C1125   1.402       .  A
C1123      C1124   1.408       .  A
C1124      H1131   1.084       .  S
C1125      C1126   1.398       .  A
C1125      H1132   1.083       .  S
C1126      C1127   1.407       .  A
C1126      H1133   1.083       .  S
C1127      C1128   1.407       .  A
C1128      H1134   1.084       .  S
C1135      C1136   1.408       .  A
C1135      C1140   1.404       .  A
C1136      C1137   1.403       .  A
C1136      H1145   1.083       .  S
C1137      C1138   1.404       .  A
C1137      H1146   1.084       .  S
C1138      C1144   1.415       .  A
C1138      C1139   1.415       .  A
C1139      C1141   1.396       .  A
C1139      C1140   1.403       .  A
C1140      H1147   1.084       .  S
C1141      C1142   1.391       .  A
C1141      H1148   1.084       .  S
C1142      C1143   1.411       .  A
C1142      H1149   1.083       .  S
C1143      C1144   1.409       .  A
C1144      H1150   1.084       .  S
C1151      C1152   1.408       .  A
C1151      C1156   1.415       .  A
C1152      C1153   1.401       .  A
C1152      H1161   1.083       .  S
C1153      C1154   1.404       .  A
C1153      H1162   1.083       .  S
C1154      C1160   1.412       .  A
C1154      C1155   1.412       .  A
C1155      C1157   1.405       .  A
C1155      C1156   1.415       .  A
C1156      H1163   1.084       .  S
C1157      C1158   1.404       .  A
C1157      H1164   1.083       .  S
C1158      C1159   1.408       .  A
C1158      H1165   1.083       .  S
C1159      C1160   1.413       .  A
C1160      H1166   1.083       .  S
C1167      C1168   1.409       .  A
C1167      C1172   1.410       .  A
C1168      C1169   1.393       .  A
C1168      H1177   1.083       .  S
C1169      C1170   1.398       .  A
C1169      H1178   1.083       .  S
C1170      C1176   1.402       .  A
C1170      C1171   1.415       .  A
C1171      C1173   1.405       .  A
C1171      C1172   1.411       .  A
C1172      H1179   1.083       .  S
C1173      C1174   1.402       .  A
C1173      H1180   1.083       .  S
C1174      C1175   1.406       .  A
C1174      H1181   1.084   1_554  S
C1175      C1176   1.402       .  A
C1176      H1182   1.084       .  S
C1183      C1184   1.409       .  A
C1183      C1188   1.407       .  A
C1184      C1185   1.398       .  A
C1184      H1193   1.083       .  S
C1185      C1186   1.401       .  A
C1185      H1194   1.083       .  S
C1186      C1192   1.405       .  A
C1186      C1187   1.414       .  A
C1187      C1189   1.401       .  A
C1187      C1188   1.404       .  A
C1188      H1195   1.084       .  S
C1189      C1190   1.396       .  A
C1189      H1196   1.083       .  S
C1190      C1191   1.405       .  A
C1190      H1197   1.084       .  S
C1191      C1192   1.405       .  A
C1192      H1198   1.084       .  S
C1199      C1200   1.410       .  A
C1199      C1204   1.411       .  A
C1200      C1201   1.404       .  A
C1200      H1209   1.081       .  S
C1201      C1202   1.403       .  A
C1201      H1210   1.087       .  S
C1202      C1208   1.418       .  A
C1202      C1203   1.414       .  A
C1203      C1205   1.400       .  A
C1203      C1204   1.414       .  A
C1204      H1211   1.089       .  S
C1205      C1206   1.400       .  A
C1205      H1212   1.090       .  S
C1206      C1207   1.413       .  A
C1206      H1213   1.080       .  S
C1207      C1208   1.412       .  A
C1208      H1214   1.089       .  S
C1215      C1216   1.409       .  A
C1215      C1220   1.409       .  A
C1216      C1217   1.401       .  A
C1216      H1225   1.080       .  S
C1217      C1218   1.402       .  A
C1217      H1226   1.085       .  S
C1218      C1224   1.409       .  A
C1218      C1219   1.413       .  A
C1219      C1221   1.401       .  A
C1219      C1220   1.405       .  A
C1220      H1227   1.092       .  S
C1221      C1222   1.397       .  A
C1221      H1228   1.090       .  S
C1222      C1223   1.408       .  A
C1222      H1229   1.080       .  S
C1223      C1224   1.409       .  A
C1224      H1230   1.084       .  S
C1231      C1232   1.405       .  A
C1231      C1236   1.415       .  A
C1232      C1233   1.398       .  A
C1232      H1241   1.083       .  S
C1233      C1234   1.403       .  A
C1233      H1242   1.083       .  S
C1234      C1240   1.399       .  A
C1234      C1235   1.410       .  A
C1235      C1237   1.410       .  A
C1235      C1236   1.407       .  A
C1236      H1243   1.083       .  S
C1237      C1238   1.406       .  A
C1237      H1244   1.083       .  S
C1238      C1239   1.401       .  A
C1238      H1245   1.083       .  S
C1239      C1240   1.407       .  A
C1240      H1246   1.082       .  S
C1247      C1248   1.404       .  A
C1247      C1252   1.411       .  A
C1248      C1249   1.397       .  A
C1248      H1257   1.083       .  S
C1249      C1250   1.403       .  A
C1249      H1258   1.084       .  S
C1250      C1256   1.402       .  A
C1250      C1251   1.411       .  A
C1251      C1253   1.407       .  A
C1251      C1252   1.410       .  A
C1252      H1259   1.084       .  S
C1253      C1254   1.405       .  A
C1253      H1260   1.084       .  S
C1254      C1255   1.405       .  A
C1254      H1261   1.083       .  S
C1255      C1256   1.411       .  A
C1256      H1262   1.084       .  S
C1263      C1264   1.408       .  A
C1263      C1268   1.408       .  A
C1264      C1265   1.399       .  A
C1264      H1273   1.083       .  S
C1265      C1266   1.402       .  A
C1265      H1274   1.085       .  S
C1266      C1272   1.408       .  A
C1266      C1267   1.415       .  A
C1267      C1269   1.401       .  A
C1267      C1268   1.406       .  A
C1268      H1275   1.084       .  S
C1269      C1270   1.397       .  A
C1269      H1276   1.083       .  S
C1270      C1271   1.406       .  A
C1270      H1277   1.083       .  S
C1271      C1272   1.405       .  A
C1272      H1278   1.085       .  S
C1279      C1280   1.405       .  A
C1279      C1284   1.415       .  A
C1280      C1281   1.395       .  A
C1280      H1289   1.083       .  S
C1281      C1282   1.400       .  A
C1281      H1290   1.084       .  S
C1282      C1288   1.406       .  A
C1282      C1283   1.413       .  A
C1283      C1285   1.409       .  A
C1283      C1284   1.421       .  A
C1284      H1291   1.083       .  S
C1285      C1286   1.410       .  A
C1285      H1292   1.083       .  S
C1286      C1287   1.408       .  A
C1286      H1293   1.082       .  S
C1287      C1288   1.409       .  A
C1288      H1294   1.085       .  S
C1295      C1296   1.403       .  A
C1295      C1300   1.401       .  A
C1296      C1297   1.402       .  A
C1296      H1305   1.083       .  S
C1297      C1298   1.406       .  A
C1297      H1306   1.083       .  S
C1298      C1304   1.411       .  A
C1298      C1299   1.416       .  A
C1299      C1301   1.399       .  A
C1299      C1300   1.403       .  A
C1300      H1307   1.086       .  S
C1301      C1302   1.394       .  A
C1301      H1308   1.085       .  S
C1302      C1303   1.405       .  A
C1302      H1309   1.083       .  S
C1303      C1304   1.409       .  A
C1304      H1310   1.084       .  S
C1311      C1312   1.405       .  A
C1311      C1316   1.416       .  A
C1312      C1313   1.398       .  A
C1312      H1321   1.083       .  S
C1313      C1314   1.403       .  A
C1313      H1322   1.084   1_655  S
C1314      C1320   1.400       .  A
C1314      C1315   1.410       .  A
C1315      C1317   1.410       .  A
C1315      C1316   1.408       .  A
C1316      H1323   1.083       .  S
C1317      C1318   1.406       .  A
C1317      H1324   1.082       .  S
C1318      C1319   1.402       .  A
C1318      H1325   1.084       .  S
C1319      C1320   1.407       .  A
C1320      H1326   1.085       .  S
C1327      C1328   1.408       .  A
C1327      C1332   1.406       .  A
C1328      C1329   1.397       .  A
C1328      H1337   1.083       .  S
C1329      C1330   1.400       .  A
C1329      H1338   1.084       .  S
C1330      C1336   1.405       .  A
C1330      C1331   1.414       .  A
C1331      C1333   1.400       .  A
C1331      C1332   1.407       .  A
C1332      H1339   1.085       .  S
C1333      C1334   1.398       .  A
C1333      H1340   1.084       .  S
C1334      C1335   1.409       .  A
C1334      H1341   1.083       .  S
C1335      C1336   1.407       .  A
C1336      H1342   1.084       .  S
C1343      C1344   1.407       .  A
C1343      C1348   1.405       .  A
C1344      C1345   1.395       .  A
C1344      H1353   1.083       .  S
C1345      C1346   1.400       .  A
C1345      H1354   1.084       .  S
C1346      C1352   1.403       .  A
C1346      C1347   1.414       .  A
C1347      C1349   1.400       .  A
C1347      C1348   1.402       .  A
C1348      H1355   1.085       .  S
C1349      C1350   1.395       .  A
C1349      H1356   1.084       .  S
C1350      C1351   1.408       .  A
C1350      H1357   1.083       .  S
C1351      C1352   1.406       .  A
C1352      H1358   1.084       .  S
C1359      C1360   1.408       .  A
C1359      C1364   1.412       .  A
C1360      C1361   1.394       .  A
C1360      H1369   1.083       .  S
C1361      C1362   1.399       .  A
C1361      H1370   1.084       .  S
C1362      C1368   1.405       .  A
C1362      C1363   1.413       .  A
C1363      C1365   1.405       .  A
C1363      C1364   1.414       .  A
C1364      H1371   1.083       .  S
C1365      C1366   1.404       .  A
C1365      H1372   1.083       .  S
C1366      C1367   1.408       .  A
C1366      H1373   1.083       .  S
C1367      C1368   1.407       .  A
C1368      H1374   1.084       .  S
C1375      C1376   1.404       .  A
C1375      C1380   1.406       .  A
C1376      C1377   1.397       .  A
C1376      H1385   1.083       .  S
C1377      C1378   1.403       .  A
C1377      H1386   1.084       .  S
C1378      C1384   1.400       .  A
C1378      C1379   1.412       .  A
C1379      C1381   1.401       .  A
C1379      C1380   1.398       .  A
C1380      H1387   1.085       .  S
C1381      C1382   1.394       .  A
C1381      H1388   1.083       .  S
C1382      C1383   1.405       .  A
C1382      H1389   1.083       .  S
C1383      C1384   1.407       .  A
C1384      H1390   1.084       .  S
C1391      C1392   1.407       .  A
C1391      C1396   1.412       .  A
C1392      C1393   1.409       .  A
C1392      H1401   1.083       .  S
C1393      C1394   1.409       .  A
C1393      H1402   1.082       .  S
C1394      C1400   1.415       .  A
C1394      C1395   1.410       .  A
C1395      C1397   1.401       .  A
C1395      C1396   1.400       .  A
C1396      H1403   1.084       .  S
C1397      C1398   1.393       .  A
C1397      H1404   1.084       .  S
C1398      C1399   1.404       .  A
C1398      H1405   1.083       .  S
C1399      C1400   1.415       .  A
C1400      H1406   1.084       .  S
C1407      C1408   1.408       .  A
C1407      C1412   1.409       .  A
C1408      C1409   1.399       .  A
C1408      H1417   1.082       .  S
C1409      C1410   1.402       .  A
C1409      H1418   1.084       .  S
C1410      C1416   1.406       .  A
C1410      C1411   1.413       .  A
C1411      C1413   1.402       .  A
C1411      C1412   1.406       .  A
C1412      H1419   1.084       .  S
C1413      C1414   1.398       .  A
C1413      H1420   1.083       .  S
C1414      C1415   1.408       .  A
C1414      H1421   1.083       .  S
C1415      C1416   1.409       .  A
C1416      H1422   1.084       .  S
C1423      C1424   1.403       .  A
C1423      C1428   1.408       .  A
C1424      C1425   1.409       .  A
C1424      H1433   1.083       .  S
C1425      C1426   1.410       .  A
C1425      H1434   1.083       .  S
C1426      C1432   1.416       .  A
C1426      C1427   1.412       .  A
C1427      C1429   1.401       .  A
C1427      C1428   1.406       .  A
C1428      H1435   1.084       .  S
C1429      C1430   1.397       .  A
C1429      H1436   1.082       .  S
C1430      C1431   1.407       .  A
C1430      H1437   1.083       .  S
C1431      C1432   1.417       .  A
C1432      H1438   1.083       .  S
C1439      C1440   1.406       .  A
C1439      C1444   1.408       .  A
C1440      C1441   1.395       .  A
C1440      H1449   1.083       .  S
C1441      C1442   1.400       .  A
C1441      H1450   1.082       .  S
C1442      C1448   1.401       .  A
C1442      C1443   1.414       .  A
C1443      C1445   1.404       .  A
C1443      C1444   1.405       .  A
C1444      H1451   1.084       .  S
C1445      C1446   1.400       .  A
C1445      H1452   1.083       .  S
C1446      C1447   1.402       .  A
C1446      H1453   1.084       .  S
C1447      C1448   1.402       .  A
C1448      H1454   1.085       .  S
C1455      C1456   1.406       .  A
C1455      C1460   1.410       .  A
C1456      C1457   1.396       .  A
C1456      H1465   1.083       .  S
C1457      C1458   1.401       .  A
C1457      H1466   1.083       .  S
C1458      C1464   1.402       .  A
C1458      C1459   1.412       .  A
C1459      C1461   1.403       .  A
C1459      C1460   1.404       .  A
C1460      H1467   1.083       .  S
C1461      C1462   1.399       .  A
C1461      H1468   1.083       .  S
C1462      C1463   1.407       .  A
C1462      H1469   1.083       .  S
C1463      C1464   1.408       .  A
C1464      H1470   1.084       .  S
C1471      C1472   1.408       .  A
C1471      C1476   1.403       .  A
C1472      C1473   1.403       .  A
C1472      H1481   1.083       .  S
C1473      C1474   1.404       .  A
C1473      H1482   1.083       .  S
C1474      C1480   1.413       .  A
C1474      C1475   1.414       .  A
C1475      C1477   1.395       .  A
C1475      C1476   1.399       .  A
C1476      H1483   1.084       .  S
C1477      C1478   1.389       .  A
C1477      H1484   1.084       .  S
C1478      C1479   1.411       .  A
C1478      H1485   1.082       .  S
C1479      C1480   1.410       .  A
C1480      H1486   1.084       .  S
C1487      C1488   1.408       .  A
C1487      C1492   1.407       .  A
C1488      C1489   1.401       .  A
C1488      H1497   1.083       .  S
C1489      C1490   1.403       .  A
C1489      H1498   1.083       .  S
C1490      C1496   1.410       .  A
C1490      C1491   1.415       .  A
C1491      C1493   1.401       .  A
C1491      C1492   1.407       .  A
C1492      H1499   1.083       .  S
C1493      C1494   1.396       .  A
C1493      H1500   1.083       .  S
C1494      C1495   1.406       .  A
C1494      H1501   1.084       .  S
C1495      C1496   1.408       .  A
C1496      H1502   1.083       .  S
C1503      C1504   1.408       .  A
C1503      C1508   1.407       .  A
C1504      C1505   1.396       .  A
C1504      H1513   1.084       .  S
C1505      C1506   1.400       .  A
C1505      H1514   1.083       .  S
C1506      C1512   1.406       .  A
C1506      C1507   1.415       .  A
C1507      C1509   1.402       .  A
C1507      C1508   1.412       .  A
C1508      H1515   1.084       .  S
C1509      C1510   1.401       .  A
C1509      H1516   1.084       .  S
C1510      C1511   1.410       .  A
C1510      H1517   1.083       .  S
C1511      C1512   1.407       .  A
C1512      H1518   1.084       .  S
