geometry optimzed in LAMMPS
_audit_creation_date              2020-11-30 
_audit_creation_method            'lammps2cif' 
_symmetry_space_group_name_H-M    'P1' 
_symmetry_Int_Tables_number       1 
_symmetry_cell_setting            triclinic 
loop_ 
_symmetry_equiv_pos_as_xyz 
  x,y,z 
_cell_length_a                    41.61468799 
_cell_length_b                    37.75390913165319 
_cell_length_c                    39.55852196253059 
_cell_angle_alpha                 91.30092659042701 
_cell_angle_beta                  90.75843832218767 
_cell_angle_gamma                 89.4744602835898 
loop_ 
_atom_site_label 
_atom_site_type_symbol 
_atom_site_fract_x 
_atom_site_fract_y 
_atom_site_fract_z 
_atom_site_charge 
O1          O  0.50104623  0.40470095  0.45746650    -0.80800
O2          O  0.48001227  0.54460899  0.55708782    -0.65500
O3          O  0.49260120  0.46679640  0.49097877    -1.12100
C4          C  0.55805149  0.55780024  0.45172158     1.06100
O5          O  0.50161213  0.58991044  0.52881169    -0.78700
O6          O  0.48074564  0.55670207  0.43599806    -0.66300
Ni7        Ni  0.50519426  0.42156170  0.50531381     1.34900
C8          C  0.47563884  0.52702179  0.42060452     0.84800
O9          O  0.46013988  0.47063938  0.54968133    -0.79200
O10         O  0.45909320  0.42040565  0.51692210    -0.89500
C11         C  0.48769854  0.57814877  0.55534254     0.84400
O12         O  0.51560228  0.43624618  0.55176853    -0.67700
O13         O  0.53804735  0.57893288  0.46733462    -0.87000
C14         C  0.53482885  0.46175795  0.55836796     0.85200
C15         C  0.44460260  0.44417936  0.53573889     1.06800
H16         H  0.53179126  0.53427658  0.50874158     0.38600
O17         O  0.51214415  0.52862612  0.49658800    -1.09700
O18         O  0.48778581  0.49893904  0.43204892    -0.66300
Ni19       Ni  0.52193485  0.49117253  0.46524780     1.26300
O20         O  0.52584030  0.49245508  0.55034251    -0.66600
O21         O  0.55251467  0.52397439  0.44491642    -0.78800
C22         C  0.51985088  0.41547075  0.43381474     0.84600
O23         O  0.53100154  0.44809131  0.43514831    -0.66000
Ni24       Ni  0.49394582  0.57114232  0.48233232     1.27400
Ni25       Ni  0.48646060  0.50309786  0.52507361     1.26100
H26         H  0.47282017  0.46472563  0.47803213     0.39100
O27         O  0.55364097  0.22306727  0.22904537    -0.80800
O28         O  0.44542467  0.16541653  0.32897812    -0.65500
O29         O  0.50204655  0.18979529  0.25538167    -1.12100
C30         C  0.40983244  0.26320858  0.23415242     1.06100
O31         O  0.40072136  0.19689686  0.31377346    -0.78700
O32         O  0.41025152  0.17885278  0.21715529    -0.66300
Ni33       Ni  0.53885632  0.20841516  0.27509015     1.34900
C34         C  0.43233354  0.17568892  0.19505633     0.84800
O35         O  0.51304597  0.14479146  0.30587534    -0.79200
O36         O  0.55566652  0.16063044  0.27400712    -0.89500
C37         C  0.41597071  0.17698090  0.33501806     0.84400
O38         O  0.51786484  0.25258530  0.28850688    -0.67700
O39         O  0.39425705  0.24146308  0.25307035    -0.87000
C40         C  0.50430969  0.24828613  0.31734250     0.85200
C41         C  0.54271195  0.13933170  0.29512058     1.06800
H42         H  0.44499740  0.22962452  0.28784988     0.38600
O43         O  0.44725300  0.20908634  0.27300304    -1.09700
O44         O  0.46015034  0.18809143  0.20174428    -0.66300
Ni45       Ni  0.47338050  0.22294703  0.23757659     1.26300
O46         O  0.49149100  0.21770286  0.32258531    -0.66600
O47         O  0.43948621  0.25673885  0.22468432    -0.78800
C48         C  0.53702879  0.23502560  0.20353859     0.84600
O49         O  0.50560622  0.23729215  0.20473559    -0.66000
Ni50       Ni  0.40635558  0.19164222  0.26491063     1.27400
Ni51       Ni  0.47681724  0.17750398  0.29228668     1.26100
H52         H  0.50586944  0.16994768  0.24004382     0.39100
C53         C  0.79440908  0.73890040  0.78103046     0.80300
N54         N  0.78717791  0.76421414  0.80502771    -0.78000
C55         C  0.77432354  0.75550742  0.83493122     0.82700
N56         N  0.76757769  0.72134991  0.84027040    -0.78000
C57         C  0.77451407  0.69556678  0.81732367     0.82800
N58         N  0.78829224  0.70414481  0.78754086    -0.79700
C59         C  0.74529212  0.99989194  0.98616562     0.80300
N60         N  0.77197602  0.98339875  0.99840210    -0.78000
C61         C  0.77011026  0.96005717  0.02372864     0.82700
N62         N  0.74096844  0.95348918  0.03682034    -0.78000
C63         C  0.71384810  0.96937742  0.02490084     0.82800
N64         N  0.71627392  0.99257642  0.99934276    -0.79700
C65         C  0.96222626  0.72452818  0.98694381     0.80300
N66         N  0.97643265  0.73259200  0.01716135    -0.78000
C67         C  0.00642304  0.74650813  0.01863686     0.82700
N68         N  0.02182649  0.75263128  0.98948983    -0.78000
C69         C  0.00779644  0.74507428  0.95915738     0.82800
N70         N  0.97776643  0.73177542  0.95795750    -0.79700
C71         C  0.96045468  0.99409906  0.79200051     0.80300
N72         N  0.96423825  0.96113332  0.77922810    -0.78000
C73         C  0.99366264  0.94586112  0.77823459     0.82700
N74         N  0.01964772  0.96416172  0.78957356    -0.78000
C75         C  0.01595329  0.99771438  0.80230724     0.82800
N76         N  0.98615097  0.01238574  0.80410614    -0.79700
N77         N  0.10344086  0.90161603  0.90033261    -0.36500
N78         N  0.14501058  0.84110378  0.92187993    -0.57100
N79         N  0.20277269  0.87761406  0.91209950    -0.36500
N80         N  0.15959493  0.93519600  0.88733105    -0.57100
C81         C  0.08634878  0.87312685  0.89046767     0.27100
C82         C  0.09391881  0.92857774  0.88093300     0.27100
C83         C  0.21318098  0.84451764  0.92041563     0.27100
C84         C  0.21796501  0.88883122  0.88383056     0.27100
C85         C  0.11413242  0.83388958  0.92908541     0.35700
C86         C  0.16321083  0.82737749  0.94712410     0.35700
C87         C  0.14104981  0.96440365  0.88917368     0.35700
C88         C  0.19000361  0.94559220  0.88514062     0.35700
C89         C  0.06547780  0.88179395  0.86430586    -0.21800
C90         C  0.06990526  0.91736028  0.85857813    -0.21800
C91         C  0.23704086  0.83471146  0.89770858    -0.21800
C92         C  0.23945302  0.86210993  0.87423651    -0.21800
C93         C  0.11220105  0.81597948  0.95894843    -0.22900
C94         C  0.14307663  0.81269376  0.97092596    -0.22900
C95         C  0.15985299  0.99436140  0.88879623    -0.22900
C96         C  0.19118620  0.98239868  0.88678261    -0.22900
C97         C  0.08799967  0.84106671  0.90734472    -0.18200
C98         C  0.10795631  0.96234529  0.88284014    -0.18200
C99         C  0.21185398  0.92303433  0.86849697    -0.18200
C100        C  0.19737078  0.82304098  0.94517606    -0.18200
H101        H  0.04856156  0.86450539  0.85125871     0.14700
H102        H  0.05772297  0.93274341  0.83949916     0.14700
H103        H  0.24977732  0.80963550  0.89659071     0.14700
H104        H  0.25530613  0.86218969  0.85279457     0.14700
H105        H  0.09074746  0.80646011  0.97085411     0.13000
H106        H  0.14951547  0.79949365  0.99399587     0.13000
H107        H  0.15186810  0.02143265  0.88626195     0.13000
H108        H  0.21196500  0.99867501  0.88254285     0.13000
H109        H  0.11997924  0.90310044  0.92039277     0.26200
H110        H  0.18517723  0.89170216  0.92544527     0.26200
N111        N  0.93143017  0.88148217  0.10856460    -0.36500
N112        N  0.94939577  0.84381852  0.16673411    -0.57100
N113        N  0.89435119  0.86801027  0.20971125    -0.36500
N114        N  0.87503774  0.90430614  0.14981959    -0.57100
C115        C  0.95247676  0.85757425  0.09599043     0.27100
C116        C  0.90852689  0.88649603  0.08482389     0.27100
C117        C  0.90138151  0.83408119  0.22062292     0.27100
C118        C  0.86285619  0.87812537  0.21599508     0.27100
C119        C  0.97748991  0.84472897  0.15023722     0.35700
C120        C  0.95619656  0.83414281  0.19851115     0.35700
C121        C  0.87523596  0.92363300  0.12149343     0.35700
C122        C  0.86023145  0.92477516  0.17347578     0.35700
C123        C  0.94347869  0.84815986  0.06302738    -0.21800
C124        C  0.91542400  0.86660462  0.05598227    -0.21800
C125        C  0.87313061  0.82239896  0.23510265    -0.21800
C126        C  0.84950788  0.84981426  0.23275157    -0.21800
C127        C  0.00268288  0.83608385  0.17159314    -0.22900
C128        C  0.98921318  0.82961623  0.20241980    -0.22900
C129        C  0.86054646  0.95607643  0.12674277    -0.22900
C130        C  0.85226128  0.95733336  0.15998700    -0.22900
C131        C  0.97856073  0.84377902  0.11483070    -0.18200
C132        C  0.88225207  0.90926078  0.08953049    -0.18200
C133        C  0.84723379  0.91127314  0.20348077    -0.18200
C134        C  0.93325833  0.81580658  0.21689252    -0.18200
H135        H  0.95515625  0.82924504  0.04619388     0.14700
H136        H  0.90158193  0.86526338  0.03263926     0.14700
H137        H  0.86969034  0.79679991  0.24618891     0.14700
H138        H  0.82488439  0.84816061  0.24096733     0.14700
H139        H  0.02745078  0.83165172  0.16458103     0.13000
H140        H  0.00145799  0.81837548  0.22401349     0.13000
H141        H  0.85554891  0.97608964  0.10819251     0.13000
H142        H  0.83941728  0.97862891  0.17223757     0.13000
H143        H  0.93266784  0.89392047  0.13234580     0.26200
H144        H  0.91075926  0.88425931  0.19796263     0.26200
N145        N  0.90805044  0.82806796  0.66062345    -0.36500
N146        N  0.93984148  0.88441250  0.62355556    -0.57100
N147        N  0.88962547  0.88123582  0.57174883    -0.36500
N148        N  0.86063044  0.82123262  0.61070402    -0.57100
C149        C  0.93766570  0.82813144  0.67428004     0.27100
C150        C  0.89389334  0.79779794  0.66941296     0.27100
C151        C  0.91332208  0.90041614  0.55686282     0.27100
C152        C  0.87287691  0.86171050  0.54786491     0.27100
C153        C  0.95102989  0.88789556  0.65573868     0.35700
C154        C  0.94120620  0.91702271  0.60999123     0.35700
C155        C  0.84501685  0.80717995  0.63687817     0.35700
C156        C  0.83803568  0.83154218  0.58846097     0.35700
C157        C  0.94326755  0.79662637  0.69090272    -0.21800
C158        C  0.91503473  0.77760140  0.68840033    -0.21800
C159        C  0.91096461  0.89364976  0.52225587    -0.21800
C160        C  0.88590690  0.86922962  0.51667089    -0.21800
C161        C  0.95910959  0.92292534  0.66265732    -0.22900
C162        C  0.95337901  0.94118067  0.63363905    -0.22900
C163        C  0.81221813  0.80797892  0.63130711    -0.22900
C164        C  0.80779287  0.82309348  0.60033973    -0.22900
C165        C  0.95533779  0.85934749  0.67826408    -0.18200
C166        C  0.86095393  0.79202091  0.66454509    -0.18200
C167        C  0.84551335  0.83909065  0.55487088    -0.18200
C168        C  0.93597333  0.92345339  0.57524842    -0.18200
H169        H  0.96423400  0.78979015  0.70595871     0.14700
H170        H  0.91009932  0.75283192  0.70047043     0.14700
H171        H  0.92593298  0.90470438  0.50305407     0.14700
H172        H  0.87801361  0.85859365  0.49236084     0.14700
H173        H  0.96797338  0.93450012  0.68617705     0.13000
H174        H  0.95746162  0.96915661  0.63071720     0.13000
H175        H  0.79365564  0.79777391  0.64723846     0.13000
H176        H  0.78496834  0.82626928  0.58760046     0.13000
H177        H  0.89655883  0.84990222  0.65004749     0.26200
H178        H  0.88453432  0.88201515  0.59749100     0.26200
N179        N  0.81541014  0.60086696  0.94004807    -0.36500
N180        N  0.87971930  0.58037326  0.92299362    -0.57100
N181        N  0.86090069  0.52203394  0.87559561    -0.36500
N182        N  0.79561781  0.53878548  0.89798493    -0.57100
C183        C  0.83015865  0.63066366  0.95100763     0.27100
C184        C  0.78436279  0.60927545  0.93440471     0.27100
C185        C  0.88712629  0.50850793  0.89219951     0.27100
C186        C  0.84270578  0.49465184  0.86348900     0.27100
C187        C  0.88642873  0.61237619  0.93675336     0.35700
C188        C  0.90784031  0.56560615  0.91349812     0.35700
C189        C  0.76773205  0.55348856  0.90816283     0.35700
C190        C  0.78839283  0.50977181  0.87947484     0.35700
C191        C  0.80756335  0.65748994  0.95575653    -0.21800
C192        C  0.77863982  0.64414020  0.94432249    -0.21800
C193        C  0.88565396  0.47183845  0.89022505    -0.21800
C194        C  0.85762216  0.46318235  0.87240706    -0.21800
C195        C  0.91931424  0.61831837  0.93531345    -0.22900
C196        C  0.93284055  0.58855095  0.92085381    -0.22900
C197        C  0.74238276  0.53270549  0.89715601    -0.22900
C198        C  0.75543950  0.50457094  0.87928044    -0.22900
C199        C  0.86364855  0.63566592  0.95201817    -0.18200
C200        C  0.76482272  0.59019638  0.91151365    -0.18200
C201        C  0.80946509  0.49744528  0.85438757    -0.18200
C202        C  0.91140210  0.52891978  0.90985709    -0.18200
H203        H  0.81193186  0.68473970  0.96340703     0.14700
H204        H  0.75656926  0.65908671  0.94105198     0.14700
H205        H  0.90235745  0.45328750  0.90154579     0.14700
H206        H  0.84809070  0.43679255  0.86859211     0.14700
H207        H  0.93253760  0.64100216  0.94490562     0.13000
H208        H  0.95830589  0.58347208  0.91800617     0.13000
H209        H  0.71718051  0.53948074  0.89858015     0.13000
H210        H  0.74214020  0.48514580  0.86439645     0.13000
H211        H  0.82617045  0.57695978  0.93344152     0.26200
H212        H  0.85455686  0.54871963  0.87379462     0.26200
N213        N  0.64924902  0.84050897  0.95530800    -0.36500
N214        N  0.58741031  0.86639792  0.97133976    -0.57100
N215        N  0.56258855  0.85892650  0.90197963    -0.36500
N216        N  0.62536077  0.83499467  0.88391559    -0.57100
C217        C  0.65496780  0.85531830  0.98629233     0.27100
C218        C  0.67717846  0.84120666  0.93839846     0.27100
C219        C  0.54674610  0.88875164  0.91320468     0.27100
C220        C  0.55904589  0.85519507  0.86780834     0.27100
C221        C  0.59838923  0.86110148  0.00288409     0.35700
C222        C  0.55725494  0.87867119  0.97356005     0.35700
C223        C  0.65615978  0.82306176  0.88148824     0.35700
C224        C  0.60945411  0.82225161  0.85598146     0.35700
C225        C  0.68745123  0.86351645  0.98931666    -0.21800
C226        C  0.70138627  0.85450611  0.95914850    -0.21800
C227        C  0.53252731  0.90436689  0.88522118    -0.21800
C228        C  0.53952226  0.88274825  0.85682704    -0.21800
C229        C  0.57441110  0.86931836  0.02583705    -0.22900
C230        C  0.54827264  0.88049533  0.00720581    -0.22900
C231        C  0.66008160  0.80376768  0.85184832    -0.22900
C232        C  0.63091984  0.80275077  0.83615203    -0.22900
C233        C  0.63111463  0.86543530  0.01018784    -0.18200
C234        C  0.68162011  0.82987002  0.90474570    -0.18200
C235        C  0.57656254  0.82984988  0.84706033    -0.18200
C236        C  0.54463232  0.90031383  0.94833370    -0.18200
H237        H  0.70007489  0.87555244  0.01054091     0.14700
H238        H  0.72633021  0.85835161  0.95284626     0.14700
H239        H  0.51820851  0.92843374  0.88527309     0.14700
H240        H  0.53273326  0.88801842  0.83091243     0.14700
H241        H  0.57711712  0.87203993  0.05302953     0.13000
H242        H  0.52667230  0.89260724  0.01732933     0.13000
H243        H  0.68156926  0.79055905  0.84272423     0.13000
H244        H  0.62703673  0.78831891  0.81281317     0.13000
H245        H  0.62757080  0.83091443  0.94570290     0.26200
H246        H  0.57558044  0.84134715  0.91681511     0.26200
N247        N  0.82272318  0.10518207  0.84741652    -0.36500
N248        N  0.80494492  0.15435468  0.89919760    -0.57100
N249        N  0.86460521  0.19615030  0.88671106    -0.36500
N250        N  0.87868080  0.14527536  0.83096278    -0.57100
C251        C  0.79312071  0.09420929  0.85502460     0.27100
C252        C  0.83036155  0.09061350  0.81737156     0.27100
C253        C  0.84419785  0.21973642  0.90211996     0.27100
C254        C  0.88525803  0.21363340  0.86676294     0.27100
C255        C  0.79285666  0.12373867  0.91010076     0.35700
C256        C  0.81247235  0.17354728  0.92713254     0.35700
C257        C  0.88553839  0.11315045  0.81712759     0.35700
C258        C  0.90719562  0.16014904  0.83926963     0.35700
C259        C  0.78084317  0.07337847  0.82872267    -0.21800
C260        C  0.80479523  0.07076050  0.80482340    -0.21800
C261        C  0.85241531  0.25348226  0.89230305    -0.21800
C262        C  0.87826004  0.24965024  0.86997174    -0.21800
C263        C  0.79263016  0.12349315  0.94514534    -0.22900
C264        C  0.80472916  0.15538576  0.95597531    -0.22900
C265        C  0.91862165  0.10812398  0.81576875    -0.22900
C266        C  0.93229106  0.13784874  0.82989233    -0.22900
C267        C  0.78165861  0.09662504  0.88812462    -0.18200
C268        C  0.86220133  0.08788009  0.80680763    -0.18200
C269        C  0.91010093  0.19637195  0.84703025    -0.18200
C270        C  0.82009672  0.20943293  0.92565966    -0.18200
H271        H  0.75853378  0.05886404  0.82841054     0.14700
H272        H  0.80457985  0.05382902  0.78237771     0.14700
H273        H  0.84123699  0.27815628  0.90046475     0.14700
H274        H  0.89052545  0.27092206  0.85775243     0.14700
H275        H  0.78495246  0.10257045  0.96133810     0.13000
H276        H  0.80780572  0.16383888  0.98210688     0.13000
H277        H  0.93172842  0.08552571  0.80564176     0.13000
H278        H  0.95779418  0.14273199  0.83231367     0.13000
H279        H  0.83890557  0.11705888  0.86436539     0.26200
H280        H  0.86498107  0.16886715  0.89034667     0.26200
O281        O  0.31350175  0.49887618  0.31927442    -0.80800
O282        O  0.19344965  0.45664658  0.22813573    -0.65500
O283        O  0.26918004  0.48015910  0.27589845    -1.12100
C284        C  0.29213656  0.52179783  0.16362913     1.06100
O285        O  0.20930818  0.46261611  0.17383149    -0.78700
O286        O  0.26009879  0.42265902  0.20718211    -0.66300
Ni287      Ni  0.26745334  0.50984708  0.31433146     1.34900
C288        C  0.28986988  0.41910534  0.21584487     0.84800
O289        O  0.21503462  0.44861443  0.29731148    -0.79200
O290        O  0.25150332  0.46792638  0.33735929    -0.89500
C291        C  0.18719039  0.45815607  0.19610264     0.84400
O292        O  0.22245553  0.52669689  0.31176912    -0.67700
O293        O  0.26483240  0.50698817  0.15633939    -0.87000
C294        C  0.20605211  0.53629319  0.28590314     0.85200
C295        C  0.22667010  0.44914974  0.32841576     1.06800
H296        H  0.24031361  0.51415550  0.21205805     0.38600
O297        O  0.24978140  0.49150956  0.21752764    -1.09700
O298        O  0.30543265  0.44739980  0.22555409    -0.66300
Ni299      Ni  0.29012928  0.49734078  0.23749482     1.26300
O300        O  0.20732039  0.51612826  0.25995052    -0.66600
O301        O  0.30647544  0.51687399  0.19335202    -0.78800
C302        C  0.33534561  0.50606240  0.29747759     0.84600
O303        O  0.32988983  0.50510623  0.26467422    -0.66000
Ni304      Ni  0.25674568  0.46396911  0.18031056     1.27400
Ni305      Ni  0.23031526  0.46976922  0.25460765     1.26100
H306        H  0.27925796  0.45796223  0.28194386     0.39100
O307        O  0.31142700  0.31582523  0.53107277    -0.80800
O308        O  0.21604162  0.18746265  0.50279818    -0.65500
O309        O  0.26817276  0.26947461  0.51894555    -1.12100
C310        C  0.16727042  0.30621293  0.56290179     1.06100
O311        O  0.16588057  0.20902021  0.51255473    -0.78700
O312        O  0.18280731  0.30711796  0.48143662    -0.66300
Ni313      Ni  0.30672045  0.26698471  0.54257641     1.34900
C314        C  0.20713929  0.32781643  0.48036159     0.84800
O315        O  0.28403051  0.20559614  0.49102100    -0.79200
O316        O  0.32351560  0.24690658  0.50054940    -0.89500
C317        C  0.18518730  0.18237545  0.50596841     0.84400
O318        O  0.30362134  0.21950885  0.55853279    -0.67700
O319        O  0.15570286  0.28255543  0.54149350    -0.87000
C320        C  0.27976137  0.20310863  0.56999320     0.85200
C321        C  0.31295090  0.21824627  0.48595633     1.06800
H322        H  0.20461519  0.24431415  0.54992859     0.38600
O323        O  0.21126298  0.25505076  0.52923067    -1.09700
O324        O  0.23034266  0.32326046  0.50090993    -0.66300
Ni325      Ni  0.23576793  0.29500266  0.54152448     1.26300
O326        O  0.25243597  0.20706353  0.55586955    -0.66600
O327        O  0.19759120  0.31533508  0.56381687    -0.78800
C328        C  0.29467501  0.33997220  0.54610689     0.84600
O329        O  0.26548319  0.33349554  0.55556449    -0.66000
Ni330      Ni  0.17519655  0.25939982  0.50081242     1.27400
Ni331      Ni  0.24490532  0.22784337  0.51096298     1.26100
H332        H  0.27185577  0.27967001  0.49714390     0.39100
O333        O  0.59474619  0.78210651  0.69726766    -0.80800
O334        O  0.49823690  0.73926044  0.81362901    -0.65500
O335        O  0.55201205  0.76900213  0.74051227    -1.12100
C336        C  0.45369015  0.82302134  0.71235414     1.06100
O337        O  0.44939325  0.76112743  0.79915137    -0.78700
O338        O  0.46228815  0.74935079  0.70168539    -0.66300
Ni339      Ni  0.58851550  0.79582831  0.74366418     1.34900
C340        C  0.48548213  0.73112199  0.68961582     0.84800
O341        O  0.56631776  0.72850490  0.79347394    -0.79200
O342        O  0.60660590  0.75202188  0.76126711    -0.89500
C343        C  0.46762713  0.74432431  0.82029604     0.84400
O344        O  0.58386428  0.81514184  0.78864298    -0.67700
O345        O  0.44343225  0.80618379  0.73823880    -0.87000
C346        C  0.56468538  0.81358960  0.81317093     0.85200
C347        C  0.59564251  0.72884057  0.78179394     1.06800
H348        H  0.49291123  0.80336381  0.77017141     0.38600
O349        O  0.49607768  0.78165846  0.75713338    -1.09700
O350        O  0.51284253  0.74493206  0.69312669    -0.66300
Ni351      Ni  0.51922360  0.79172174  0.71697237     1.26300
O352        O  0.53947221  0.79445998  0.81070872    -0.66600
O353        O  0.48127560  0.81588713  0.69826640    -0.78800
C354        C  0.57778073  0.79735195  0.67452931     0.84600
O355        O  0.54737657  0.80416490  0.67887057    -0.66000
Ni356      Ni  0.45704539  0.75817108  0.74991040     1.27400
Ni357      Ni  0.52838599  0.75523237  0.77832023     1.26100
H358        H  0.55740537  0.74720295  0.72853773     0.39100
O359        O  0.33095321  0.78409843  0.00336084    -0.80800
O360        O  0.23519703  0.65416928  0.97047977    -0.65500
O361        O  0.28672269  0.73840047  0.98825221    -1.12100
C362        C  0.19070552  0.76328622  0.05050245     1.06100
O363        O  0.19020892  0.67026526  0.99958199    -0.78700
O364        O  0.19195016  0.76612556  0.96961929    -0.66300
Ni365      Ni  0.32718091  0.73349878  0.00937608     1.34900
C366        C  0.21138618  0.79119469  0.96456423     0.84800
O367        O  0.30296816  0.68112055  0.94845182    -0.79200
O368        O  0.34219891  0.72083392  0.96392092    -0.89500
C369        C  0.20749328  0.64638161  0.98461718     0.84400
O370        O  0.32675436  0.68318305  0.02095620    -0.67700
O371        O  0.17793701  0.73826666  0.03186145    -0.87000
C372        C  0.30423444  0.66186578  0.02813039     0.85200
C373        C  0.33112281  0.69691088  0.94300863     1.06800
H374        H  0.23192660  0.70647616  0.02668562     0.38600
O375        O  0.23298173  0.71858198  0.00546999    -1.09700
O376        O  0.23960155  0.79022798  0.97781072    -0.66300
Ni377      Ni  0.25522152  0.76058778  0.01588209     1.26300
O378        O  0.27633295  0.66841120  0.01745753    -0.66600
O379        O  0.21911730  0.77657935  0.04454394    -0.78800
C380        C  0.31419275  0.80642333  0.02085772     0.84600
O381        O  0.28429335  0.80036425  0.02859411    -0.66000
Ni382      Ni  0.19183514  0.71924628  0.98733134     1.27400
Ni383      Ni  0.26430540  0.69617841  0.97799882     1.26100
H384        H  0.28856952  0.75156365  0.96767628     0.39100
O385        O  0.06568847  0.47148287  0.04982542    -0.80800
O386        O  0.96307791  0.51946758  0.93854111    -0.65500
O387        O  0.02017580  0.48849763  0.00861437    -1.12100
C388        C  0.92235313  0.42743272  0.03490076     1.06100
O389        O  0.91656586  0.50119892  0.96248697    -0.78700
O390        O  0.95118304  0.53617019  0.01558042    -0.66300
Ni391      Ni  0.05894729  0.46485022  0.00096414     1.34900
C392        C  0.96189547  0.53590659  0.04610748     0.84800
O393        O  0.03165805  0.53454859  0.95968568    -0.79200
O394        O  0.07430599  0.51199271  0.98998896    -0.89500
C395        C  0.93212559  0.51394594  0.93763226     0.84400
O396        O  0.05519997  0.45397873  0.95218677    -0.67700
O397        O  0.91067533  0.44589656  0.01060498    -0.87000
C398        C  0.03245462  0.45341640  0.93009708     0.85200
C399        C  0.06146316  0.53656069  0.97165329     1.06800
H400        H  0.96133056  0.45067886  0.97668871     0.38600
O401        O  0.96517329  0.47165722  0.99056115    -1.09700
O402        O  0.97426685  0.50620115  0.05619277    -0.66300
Ni403      Ni  0.98856981  0.46191882  0.02975504     1.26300
O404        O  0.00552312  0.46742940  0.93730516    -0.66600
O405        O  0.95169050  0.43350830  0.04648182    -0.78800
C406        C  0.04703477  0.46193980  0.07379228     0.84600
O407        O  0.01726647  0.45282901  0.06825178    -0.66000
Ni408      Ni  0.92943718  0.49214956  0.00872206     1.27400
Ni409      Ni  0.99505470  0.50342677  0.97227984     1.26100
H410        H  0.02425384  0.50926306  0.02272098     0.39100
O411        O  0.21678332  0.08474452  0.77954404    -0.80800
O412        O  0.30144562  0.95582764  0.72755094    -0.65500
O413        O  0.23658667  0.02494491  0.75222289    -1.12100
C414        C  0.22011247  0.93508302  0.83267238     1.06100
O415        O  0.28988002  0.91606198  0.76750984    -0.78700
O416        O  0.19812649  0.92558277  0.75337022    -0.66300
Ni417      Ni  0.25756483  0.06658187  0.76065230     1.34900
C418        C  0.17938886  0.95152904  0.74627677     0.84800
O419        O  0.27967472  0.02693593  0.70276526    -0.79200
O420        O  0.24898929  0.07590924  0.71388722    -0.89500
C421        C  0.30696346  0.92577366  0.74259345     0.84400
O422        O  0.27507199  0.05206293  0.80310667    -0.67700
O423        O  0.23599882  0.91460077  0.81203310    -0.87000
C424        C  0.30168427  0.03597775  0.79679862     0.85200
C425        C  0.26517913  0.05628199  0.69281073     1.06800
H426        H  0.26878715  0.96793648  0.79358636     0.38600
O427        O  0.25342388  0.96752600  0.77504269    -1.09700
O428        O  0.18646143  0.98268959  0.75660726    -0.66300
Ni429      Ni  0.22111154  0.99870629  0.78799974     1.26300
O430        O  0.30271935  0.01450091  0.77089261    -0.66600
O431        O  0.20906303  0.96616444  0.82369053    -0.78800
C432        C  0.19392469  0.07039528  0.79644476     0.84600
O433        O  0.19222753  0.03677351  0.80203479    -0.66000
Ni434      Ni  0.24395138  0.92125588  0.76345185     1.27400
Ni435      Ni  0.26941240  0.99384936  0.73959926     1.26100
H436        H  0.22055041  0.02678751  0.73444234     0.39100
O437        O  0.84103991  0.78546771  0.52088641    -0.80800
O438        O  0.72375763  0.68079099  0.47876646    -0.65500
O439        O  0.78425729  0.74569206  0.52343449    -1.12100
C440        C  0.70703697  0.78717199  0.55348509     1.06100
O441        O  0.68154260  0.71145772  0.49696561    -0.78700
O442        O  0.69589987  0.80734156  0.46839398    -0.66300
Ni443      Ni  0.82884047  0.73617824  0.53088172     1.34900
C444        C  0.71655535  0.83199520  0.47148860     0.84800
O445        O  0.78658584  0.70793511  0.46479994    -0.79200
O446        O  0.83678208  0.72306932  0.48267495    -0.89500
C447        C  0.69287648  0.68487923  0.48040850     0.84400
O448        O  0.82063090  0.68719432  0.54476961    -0.67700
O449        O  0.68628237  0.77661120  0.53106818    -0.87000
C450        C  0.79794157  0.66437324  0.54167662     0.85200
C451        C  0.81671581  0.71486651  0.45869221     1.06800
H452        H  0.72820479  0.74664911  0.50871959     0.38600
O453        O  0.73577534  0.75286634  0.48722074    -1.09700
O454        O  0.74343403  0.82843340  0.48707089    -0.66300
Ni455      Ni  0.76409038  0.78742277  0.50691238     1.26300
O456        O  0.77298099  0.67000445  0.52378797    -0.66600
O457        O  0.73713660  0.79188300  0.54704837    -0.78800
C458        C  0.82723283  0.81451000  0.53057216     0.84600
O459        O  0.79651224  0.81862449  0.52768303    -0.66000
Ni460      Ni  0.69054377  0.75994251  0.48376503     1.27400
Ni461      Ni  0.75582430  0.71122364  0.50262065     1.26100
H462        H  0.79351578  0.75301335  0.50291607     0.39100
O463        O  0.96414899  0.71843221  0.33555410    -0.80800
O464        O  0.06927946  0.75466459  0.22582989    -0.65500
O465        O  0.00119245  0.73247783  0.28588575    -1.12100
C466        C  0.96216050  0.68537548  0.17967092     1.06100
O467        O  0.04734727  0.73948163  0.17472665    -0.78700
O468        O  0.95648018  0.76116731  0.19332087    -0.66300
Ni469      Ni  0.00873503  0.70708789  0.32533642     1.34900
C470        C  0.94520193  0.77598949  0.21997477     0.84800
O471        O  0.05585663  0.76993487  0.29745505    -0.79200
O472        O  0.02554915  0.75311713  0.34219779    -0.89500
C473        C  0.07101988  0.75147217  0.19297724     0.84400
O474        O  0.05277564  0.68905476  0.31844620    -0.67700
O475        O  0.98568022  0.70304580  0.16745942    -0.87000
C476        C  0.07091341  0.68340119  0.29295554     0.85200
C477        C  0.04542496  0.77480220  0.32845425     1.06800
H478        H  0.02015680  0.69834451  0.21854622     0.38600
O479        O  0.01027749  0.72078056  0.22479328    -1.09700
O480        O  0.95208633  0.76034163  0.24762431    -0.66300
Ni481      Ni  0.97420540  0.71216048  0.25198559     1.26300
O482        O  0.06351648  0.69905534  0.26537965    -0.66600
O483        O  0.95269130  0.68948096  0.21133233    -0.78800
C484        C  0.94018314  0.70534216  0.31868605     0.84600
O485        O  0.94082696  0.70060798  0.28571859    -0.66000
Ni486      Ni  0.00186972  0.74770759  0.18591572     1.27400
Ni487      Ni  0.03626032  0.74303961  0.25862327     1.26100
H488        H  0.99149361  0.75494061  0.29233508     0.39100
O489        O  0.42005720  0.97955870  0.99648181    -0.80800
O490        O  0.53254557  0.07803117  0.96056891    -0.65500
O491        O  0.47260523  0.00427578  0.97429565    -1.12100
C492        C  0.55748917  0.97464494  0.05017602     1.06100
O493        O  0.57633192  0.05692330  0.98922608    -0.78700
O494        O  0.56294200  0.95621304  0.97117593    -0.66300
Ni495      Ni  0.43577535  0.02671034  0.98806477     1.34900
C496        C  0.53875250  0.93795019  0.96147276     0.84800
O497        O  0.46645049  0.06131704  0.93505629    -0.79200
O498        O  0.42326726  0.02628246  0.94158965    -0.89500
C499        C  0.56273342  0.08004995  0.96997318     0.84400
O500        O  0.45154312  0.03581274  0.03325140    -0.67700
O501        O  0.57542145  0.99390594  0.03125128    -0.87000
C502        C  0.46643450  0.06532631  0.03318865     0.85200
C503        C  0.43901034  0.04783170  0.92354314     1.06800
H504        H  0.52863039  0.03161287  0.01821170     0.38600
O505        O  0.52682007  0.01747863  0.99761728    -1.09700
O506        O  0.51077399  0.94782984  0.96980299    -0.66300
Ni507      Ni  0.49833111  0.98101168  0.00613691     1.26300
O508        O  0.48401547  0.07149210  0.00714475    -0.66600
O509        O  0.52974044  0.96192054  0.03941564    -0.78800
C510        C  0.43302798  0.95177687  0.00950661     0.84600
O511        O  0.46379888  0.94763444  0.01465236    -0.66000
Ni512      Ni  0.56828418  0.00624928  0.98320325     1.27400
Ni513      Ni  0.49965030  0.04187984  0.96762133     1.26100
H514        H  0.46981312  0.99017173  0.95375423     0.39100
C515        C  0.28782381  0.80383159  0.33126106     0.80300
N516        N  0.29222600  0.82916979  0.30806322    -0.78000
C517        C  0.31552592  0.82574473  0.28493345     0.82700
N518        N  0.33371235  0.79626299  0.28382721    -0.78000
C519        C  0.32878510  0.76994712  0.30541861     0.82800
N520        N  0.30599737  0.77372664  0.32956898    -0.79700
N521        N  0.45611260  0.62174059  0.30212175    -0.36500
N522        N  0.39396672  0.58135696  0.29887794    -0.57100
N523        N  0.41784973  0.52734518  0.34205895    -0.36500
N524        N  0.49408557  0.57487952  0.36888369    -0.57100
C525        C  0.43659714  0.64673769  0.28940649     0.27100
C526        C  0.48437975  0.63751950  0.31024221     0.27100
C527        C  0.38764875  0.51445665  0.33687685     0.27100
C528        C  0.43093520  0.51551637  0.37164978     0.27100
C529        C  0.38534813  0.61193453  0.28405042     0.35700
C530        C  0.36857011  0.55933014  0.29534766     0.35700
C531        C  0.50494252  0.58740540  0.33973775     0.35700
C532        C  0.48298559  0.54239955  0.36195185     0.35700
C533        C  0.45325827  0.67834394  0.28728933    -0.21800
C534        C  0.48346202  0.67253176  0.30076850    -0.21800
C535        C  0.38150593  0.49241447  0.36375993    -0.21800
C536        C  0.40826612  0.49393311  0.38606201    -0.21800
C537        C  0.35419883  0.60986705  0.27168802    -0.22900
C538        C  0.34367991  0.57682377  0.27848859    -0.22900
C539        C  0.50268587  0.56165242  0.31420870    -0.22900
C540        C  0.48850859  0.53280704  0.32847399    -0.22900
C541        C  0.40307876  0.64354114  0.28497183    -0.18200
C542        C  0.50533010  0.62400323  0.33504937    -0.18200
C543        C  0.46247177  0.52619192  0.38436233    -0.18200
C544        C  0.36587726  0.52502484  0.30960092    -0.18200
H545        H  0.44374543  0.70369135  0.27946327     0.14700
H546        H  0.50143853  0.69248037  0.30618867     0.14700
H547        H  0.35948012  0.47825017  0.36793018     0.14700
H548        H  0.41072707  0.48049139  0.40983607     0.14700
H549        H  0.34007534  0.63033302  0.25966101     0.13000
H550        H  0.31947419  0.56793737  0.27331107     0.13000
H551        H  0.50706617  0.56498260  0.28756587     0.13000
H552        H  0.48051215  0.50900494  0.31527761     0.13000
H553        H  0.44903691  0.59684710  0.30953288     0.26200
H554        H  0.42935763  0.54422821  0.32605850     0.26200
C555        C  0.43305922  0.99266500  0.25934915     0.80300
N556        N  0.40661854  0.98281734  0.27584545    -0.78000
C557        C  0.40841954  0.97022415  0.30733462     0.82700
N558        N  0.43750907  0.96905512  0.32318549    -0.78000
C559        C  0.46442161  0.97904394  0.30698996     0.82800
N560        N  0.46235442  0.99004137  0.27451431    -0.79700
N561        N  0.59557953  0.92389773  0.43705917    -0.36500
N562        N  0.63620795  0.93643181  0.37811375    -0.57100
N563        N  0.69260086  0.90550608  0.41149317    -0.36500
N564        N  0.65195937  0.89169744  0.46805554    -0.57100
C565        C  0.57380332  0.93047041  0.41243432     0.27100
C566        C  0.58193887  0.90055301  0.45776031     0.27100
C567        C  0.70301178  0.90795807  0.37922896     0.27100
C568        C  0.70932778  0.87897577  0.42675179     0.27100
C569        C  0.61026369  0.95744357  0.37201185     0.35700
C570        C  0.65966189  0.94772701  0.35764042     0.35700
C571        C  0.62999651  0.88889111  0.49245168     0.35700
C572        C  0.68027652  0.88128655  0.48124046     0.35700
C573        C  0.54546318  0.91277726  0.41842029    -0.21800
C574        C  0.55068994  0.89362525  0.44704914    -0.21800
C575        C  0.72773717  0.88360190  0.37422727    -0.21800
C576        C  0.73126790  0.86485167  0.40393032    -0.21800
C577        C  0.61710745  0.98197532  0.34787863    -0.22900
C578        C  0.64817378  0.97575545  0.33872862    -0.22900
C579        C  0.64442092  0.87750049  0.52198491    -0.22900
C580        C  0.67634566  0.87285978  0.51497149    -0.22900
C581        C  0.57922940  0.95176146  0.38449099    -0.18200
C582        C  0.59784144  0.88283210  0.48416383    -0.18200
C583        C  0.70503470  0.86755741  0.46067764    -0.18200
C584        C  0.69076047  0.93215496  0.35475186    -0.18200
H585        H  0.52377452  0.91251716  0.40301461     0.14700
H586        H  0.53380649  0.87575988  0.45816069     0.14700
H587        H  0.74119037  0.87914868  0.35127251     0.14700
H588        H  0.74825870  0.84352154  0.40833651     0.14700
H589        H  0.60105077  0.00164233  0.33724372     0.13000
H590        H  0.66021855  0.98997452  0.31959848     0.13000
H591        H  0.63257888  0.86933776  0.54470273     0.13000
H592        H  0.69366896  0.86013753  0.53131652     0.13000
H593        H  0.61862993  0.93434602  0.43889455     0.26200
H594        H  0.67531977  0.92191354  0.42256202     0.26200
N595        N  0.33807955  0.93206195  0.12953876    -0.36500
N596        N  0.38095064  0.95544552  0.08020803    -0.57100
N597        N  0.37130275  0.88558379  0.04256890    -0.36500
N598        N  0.32408503  0.86705065  0.09322919    -0.57100
C599        C  0.34176033  0.96596015  0.14013016     0.27100
C600        C  0.31656862  0.91727474  0.14962621     0.27100
C601        C  0.38871424  0.90511761  0.02105784     0.27100
C602        C  0.35272657  0.86201246  0.02443987     0.27100
C603        C  0.38789922  0.97948350  0.10513568     0.35700
C604        C  0.40811831  0.95162939  0.06241917     0.35700
C605        C  0.32051900  0.85672988  0.12536003     0.35700
C606        C  0.32749016  0.83723628  0.07431056     0.35700
C607        C  0.32125681  0.97338456  0.16667861    -0.21800
C608        C  0.30549419  0.94240923  0.17293729    -0.21800
C609        C  0.38176624  0.89330330  0.98830539    -0.21800
C610        C  0.35895036  0.86638569  0.99041488    -0.21800
C611        C  0.41850824  0.99258448  0.10187853    -0.22900
C612        C  0.43149222  0.97442461  0.07556535    -0.22900
C613        C  0.32232546  0.82009106  0.12689506    -0.22900
C614        C  0.32569024  0.80765743  0.09421685    -0.22900
C615        C  0.36991339  0.98482160  0.13451479    -0.18200
C616        C  0.31408037  0.88038368  0.15261037    -0.18200
C617        C  0.33140294  0.83668725  0.03910881    -0.18200
C618        C  0.41088455  0.93243223  0.03154384    -0.18200
H619        H  0.32109945  0.99700698  0.18271230     0.14700
H620        H  0.29129463  0.93772440  0.19501914     0.14700
H621        H  0.39175849  0.90327580  0.96530836     0.14700
H622        H  0.34830657  0.85172290  0.96935313     0.14700
H623        H  0.43099265  0.01149227  0.11817900     0.13000
H624        H  0.45560952  0.97804466  0.06698889     0.13000
H625        H  0.32108099  0.80393171  0.14904620     0.13000
H626        H  0.32777189  0.78016116  0.08611241     0.13000
H627        H  0.35356726  0.91759655  0.11416303     0.26200
H628        H  0.37316334  0.88782404  0.06875660     0.26200
C629        C  0.22406199  0.99716058  0.57666071     0.80300
N630        N  0.19301073  0.99041082  0.56710931    -0.78000
C631        C  0.17659259  0.96400799  0.58217602     0.82700
N632        N  0.19183746  0.94505720  0.60614069    -0.78000
C633        C  0.22285379  0.94962899  0.61423053     0.82800
N634        N  0.23893140  0.97557726  0.59895091    -0.79700
C635        C  0.50244012  0.71100819  0.45803215     0.80300
N636        N  0.52813273  0.73168969  0.46635366    -0.78000
C637        C  0.52626583  0.75672859  0.49166867     0.82700
N638        N  0.49818181  0.76138968  0.50789936    -0.78000
C639        C  0.47263285  0.74102918  0.50000879     0.82800
N640        N  0.47480280  0.71587554  0.47537874    -0.79700
N641        N  0.33708278  0.79542956  0.63088830    -0.36500
N642        N  0.31723867  0.84800445  0.68594224    -0.57100
N643        N  0.37740821  0.87719903  0.69964147    -0.36500
N644        N  0.39881221  0.82324681  0.64704012    -0.57100
C645        C  0.30558817  0.79949273  0.62397599     0.27100
C646        C  0.35133812  0.78642029  0.60159059     0.27100
C647        C  0.36060264  0.89431486  0.72452836     0.27100
C648        C  0.40668440  0.86771736  0.71208684     0.27100
C649        C  0.29379694  0.82453764  0.67916220     0.35700
C650        C  0.30900421  0.86689890  0.71360159     0.35700
C651        C  0.40624905  0.80743629  0.61719004     0.35700
C652        C  0.42607105  0.83759441  0.65971701     0.35700
C653        C  0.29899998  0.78982959  0.59068829    -0.21800
C654        C  0.32811306  0.78041789  0.57662296    -0.21800
C655        C  0.38050161  0.89829269  0.75266806    -0.21800
C656        C  0.40931665  0.88082867  0.74508750    -0.21800
C657        C  0.27105087  0.82709350  0.70421189    -0.22900
C658        C  0.28006840  0.85442983  0.72562808    -0.22900
C659        C  0.43852844  0.81234446  0.61050319    -0.22900
C660        C  0.45103142  0.83137573  0.63741277    -0.22900
C661        C  0.28491356  0.81840756  0.64540408    -0.18200
C662        C  0.38455974  0.78814160  0.59601608    -0.18200
C663        C  0.43008086  0.84655106  0.69426393    -0.18200
C664        C  0.32632476  0.89700143  0.72509319    -0.18200
H665        H  0.27609969  0.79170066  0.57753762     0.14700
H666        H  0.33195014  0.77328348  0.55034007     0.14700
H667        H  0.37381910  0.90909629  0.77718019     0.14700
H668        H  0.42955956  0.87743204  0.76219087     0.14700
H669        H  0.24825908  0.81373000  0.70434111     0.13000
H670        H  0.26603709  0.86383871  0.74677573     0.13000
H671        H  0.45191033  0.80270518  0.58884630     0.13000
H672        H  0.47595429  0.83880232  0.64064522     0.13000
H673        H  0.34809603  0.80146554  0.65397824     0.26200
H674        H  0.36866006  0.87065651  0.67561125     0.26200
N675        N  0.32518684  0.07296396  0.43226892    -0.36500
N676        N  0.36433011  0.10978868  0.37881118    -0.57100
N677        N  0.36888863  0.17141867  0.42024218    -0.36500
N678        N  0.32500961  0.13311569  0.47093312    -0.57100
C679        C  0.31892491  0.05364501  0.40430004     0.27100
C680        C  0.30255378  0.06520773  0.45516969     0.27100
C681        C  0.38053781  0.18379269  0.39053567     0.27100
C682        C  0.35266578  0.19783901  0.43713763     0.27100
C683        C  0.36352797  0.07539598  0.36819176     0.35700
C684        C  0.38933853  0.12522957  0.36287498     0.35700
C685        C  0.31851785  0.11042389  0.49561267     0.35700
C686        C  0.33838838  0.16151012  0.48559993     0.35700
C687        C  0.29203682  0.03288480  0.40918130    -0.21800
C688        C  0.28147961  0.04045007  0.44148971    -0.21800
C689        C  0.37286052  0.21965044  0.38939896    -0.21800
C690        C  0.35480479  0.22826343  0.41825285    -0.21800
C691        C  0.38784888  0.06911703  0.34505934    -0.22900
C692        C  0.40391531  0.10043787  0.34154912    -0.22900
C693        C  0.32708937  0.12461262  0.52684833    -0.22900
C694        C  0.33975039  0.15738636  0.52046484    -0.22900
C695        C  0.34049432  0.04967415  0.37764898    -0.18200
C696        C  0.30282262  0.07850072  0.48872434    -0.18200
C697        C  0.33708223  0.19379565  0.46935866    -0.18200
C698        C  0.39671181  0.16220983  0.36485548    -0.18200
H699        H  0.28198045  0.01331705  0.39174439     0.14700
H700        H  0.26143286  0.02834807  0.45384467     0.14700
H701        H  0.37861950  0.23750589  0.36939415     0.14700
H702        H  0.34483089  0.25405876  0.42474108     0.14700
H703        H  0.39331968  0.04459402  0.33160171     0.13000
H704        H  0.42380058  0.10423865  0.32476315     0.13000
H705        H  0.32413446  0.11293075  0.55128029     0.13000
H706        H  0.34771166  0.17674784  0.53924161     0.13000
H707        H  0.34593195  0.08782489  0.43620705     0.26200
H708        H  0.37196634  0.14579714  0.42905313     0.26200
N709        N  0.13886511  0.83012657  0.45081186    -0.36500
N710        N  0.07763210  0.84775530  0.47190111    -0.57100
N711        N  0.04604076  0.83165084  0.40693448    -0.36500
N712        N  0.10969699  0.81832032  0.38205145    -0.57100
C713        C  0.14526987  0.84701160  0.48075618     0.27100
C714        C  0.16481125  0.83380119  0.43142877     0.27100
C715        C  0.02996140  0.86132954  0.41850112     0.27100
C716        C  0.04041058  0.82675062  0.37331744     0.27100
C717        C  0.09107398  0.84322094  0.50219427     0.35700
C718        C  0.04614047  0.85134122  0.47583065     0.35700
C719        C  0.14131101  0.81563443  0.37471669     0.35700
C720        C  0.09337611  0.80799359  0.35357084     0.35700
C721        C  0.17634596  0.85980399  0.48094820    -0.21800
C722        C  0.18887979  0.85105024  0.44990541    -0.21800
C723        C  0.01338808  0.87556209  0.39127808    -0.21800
C724        C  0.01956545  0.85349908  0.36299124    -0.21800
C725        C  0.06748236  0.84306243  0.52661777    -0.22900
C726        C  0.03863378  0.84747090  0.50964731    -0.22900
C727        C  0.14495462  0.80538519  0.34107206    -0.22900
C728        C  0.11471801  0.80084795  0.32766577    -0.22900
C729        C  0.12286744  0.85331898  0.50685364    -0.18200
C730        C  0.16733577  0.82245184  0.39739809    -0.18200
C731        C  0.05951765  0.80428444  0.35140142    -0.18200
C732        C  0.03061427  0.87378286  0.45342237    -0.18200
H733        H  0.18843363  0.87455380  0.50108743     0.14700
H734        H  0.21261561  0.85792157  0.44152377     0.14700
H735        H  0.99842235  0.89914835  0.39164820     0.14700
H736        H  0.01155101  0.85817205  0.33732841     0.14700
H737        H  0.07070258  0.84383907  0.55375552     0.13000
H738        H  0.01568454  0.85301676  0.52131829     0.13000
H739        H  0.16715520  0.80141403  0.32749182     0.13000
H740        H  0.10948312  0.79331213  0.30168528     0.13000
H741        H  0.11805564  0.81687825  0.44340962     0.26200
H742        H  0.06114623  0.81519843  0.42092264     0.26200
O743        O  0.80369276  0.98802885  0.33111838    -0.80800
O744        O  0.68754037  0.96078547  0.22485309    -0.65500
O745        O  0.76205517  0.97403185  0.28267985    -1.12100
C746        C  0.79172831  0.02451328  0.17975754     1.06100
O747        O  0.70701037  0.97645063  0.17418164    -0.78700
O748        O  0.79407489  0.93650387  0.18881020    -0.66300
Ni749      Ni  0.75917539  0.00173759  0.32215792     1.34900
C750        C  0.81479756  0.93156985  0.21280677     0.84800
O751        O  0.70175756  0.94976787  0.29709927    -0.79200
O752        O  0.73925862  0.95974624  0.33928735    -0.89500
C753        C  0.68302015  0.97022810  0.19351860     0.84400
O754        O  0.71600262  0.02093853  0.31663649    -0.67700
O755        O  0.77060595  0.00328602  0.16602965    -0.87000
C756        C  0.69921183  0.03179743  0.29162637     0.85200
C757        C  0.71239165  0.94656563  0.32828299     1.06800
H758        H  0.74036961  0.00890088  0.21762505     0.38600
O759        O  0.74931191  0.98594130  0.22291087    -1.09700
O760        O  0.81186679  0.95016234  0.24017006    -0.66300
Ni761      Ni  0.78660158  0.99511702  0.24904339     1.26300
O762        O  0.70302022  0.01598017  0.26321424    -0.66600
O763        O  0.80412609  0.01985658  0.21006046    -0.78800
C764        C  0.82594553  0.00243175  0.31397250     0.84600
O765        O  0.82211007  0.00743185  0.28146359    -0.66000
Ni766      Ni  0.75129771  0.95951927  0.18271991     1.27400
Ni767      Ni  0.72356239  0.96808038  0.25682121     1.26100
H768        H  0.77103734  0.95093848  0.28742583     0.39100
O769        O  0.77376620  0.24842256  0.92908897    -0.80800
O770        O  0.67481595  0.28820128  0.04582997    -0.65500
O771        O  0.74591965  0.27326397  0.98493205    -1.12100
C772        C  0.76453561  0.18416886  0.06836501     1.06100
O773        O  0.69876916  0.26340914  0.09231130    -0.78700
O774        O  0.75382547  0.29888951  0.06300224    -0.66300
Ni775      Ni  0.73000448  0.26320718  0.94294746     1.34900
C776        C  0.78218783  0.29772696  0.05009207     0.84800
O777        O  0.69894532  0.32198598  0.97910367    -0.79200
O778        O  0.73274531  0.31301621  0.93430561    -0.89500
C779        C  0.67409152  0.27838149  0.07776686     0.84400
O780        O  0.71798647  0.21693536  0.95577173    -0.67700
O781        O  0.74350227  0.20193955  0.08587136    -0.87000
C782        C  0.68924155  0.21957607  0.96683181     0.85200
C783        C  0.71287428  0.33321629  0.95095625     1.06800
H784        H  0.71122038  0.22256756  0.03528753     0.38600
O785        O  0.72552873  0.24263109  0.03561989    -1.09700
O786        O  0.79032600  0.26949237  0.03324474    -0.66300
Ni787      Ni  0.76150135  0.23471550  0.00926319     1.26300
O788        O  0.68193741  0.24689791  0.98565650    -0.66600
O789        O  0.77410906  0.19526831  0.03890305    -0.78800
C790        C  0.79657605  0.23208733  0.94533223     0.84600
O791        O  0.79584939  0.22673167  0.97747787    -0.66000
Ni792      Ni  0.74319483  0.25226363  0.07696969     1.27400
Ni793      Ni  0.70972471  0.28152706  0.01118856     1.26100
H794        H  0.76040724  0.29311193  0.98537527     0.39100
C795        C  0.27352856  0.27566644  0.72706522     0.80300
N796        N  0.24142984  0.27476034  0.71908216    -0.78000
C797        C  0.22534537  0.30582730  0.71388316     0.82700
N798        N  0.24083826  0.33672107  0.71860016    -0.78000
C799        C  0.27214477  0.33792489  0.72710015     0.82800
N800        N  0.28872839  0.30728754  0.73050677    -0.79700
C801        C  0.50026520  0.23070533  0.02293480     0.80300
N802        N  0.49566322  0.21705630  0.99159373    -0.78000
C803        C  0.51318474  0.22776325  0.96533407     0.82700
N804        N  0.53701602  0.25147346  0.97118712    -0.78000
C805        C  0.54372013  0.26317502  0.00341032     0.82800
N806        N  0.52434463  0.25388740  0.02886289    -0.79700
C807        C  0.49395774  0.49808867  0.71839252     0.80300
N808        N  0.49169895  0.46802587  0.73650142    -0.78000
C809        C  0.51003852  0.46378358  0.76454309     0.82700
N810        N  0.52985761  0.49008124  0.77514828    -0.78000
C811        C  0.53204941  0.52067174  0.75833953     0.82800
N812        N  0.51363831  0.52461857  0.72988145    -0.79700
C813        C  0.26580669  0.44560449  0.91508137     0.80300
N814        N  0.26769634  0.42321640  0.94135484    -0.78000
C815        C  0.29649147  0.41350882  0.95467805     0.82700
N816        N  0.32379991  0.42703270  0.94178033    -0.78000
C817        C  0.32209634  0.44951398  0.91558876     0.82800
N818        N  0.29308441  0.45854455  0.90265230    -0.79700
N819        N  0.44627187  0.59651644  0.87435692    -0.36500
N820        N  0.38278390  0.63015406  0.89450539    -0.57100
N821        N  0.40867662  0.69963564  0.88681817    -0.36500
N822        N  0.46844305  0.66424390  0.85929724    -0.57100
C823        C  0.42684811  0.56841610  0.87148753     0.27100
C824        C  0.47365923  0.58782583  0.85776359     0.27100
C825        C  0.37787599  0.70814668  0.89689150     0.27100
C826        C  0.42083666  0.72495305  0.86575926     0.27100
C827        C  0.37479214  0.59548750  0.89248737     0.35700
C828        C  0.35625147  0.64799634  0.90561088     0.35700
C829        C  0.49662281  0.64661265  0.86198720     0.35700
C830        C  0.47495434  0.69870342  0.86364627     0.35700
C831        C  0.44253676  0.54078939  0.85456837    -0.21800
C832        C  0.47190632  0.55322618  0.84542599    -0.21800
C833        C  0.37064396  0.74067117  0.88257975    -0.21800
C834        C  0.39689350  0.75062224  0.86262790    -0.21800
C835        C  0.34281560  0.59159786  0.90088129    -0.22900
C836        C  0.33099462  0.62465164  0.90839018    -0.22900
C837        C  0.52163606  0.66971832  0.86728757    -0.22900
C838        C  0.50770998  0.70278006  0.86929318    -0.22900
C839        C  0.39530300  0.56660424  0.88347444    -0.18200
C840        C  0.49964381  0.61089011  0.85294951    -0.18200
C841        C  0.45367319  0.72486606  0.85164224    -0.18200
C842        C  0.35504330  0.68478163  0.91415258    -0.18200
H843        H  0.43339696  0.51464486  0.84843539     0.14700
H844        H  0.48952735  0.53842414  0.83093991     0.14700
H845        H  0.34796419  0.75478034  0.88446806     0.14700
H846        H  0.39827260  0.77443839  0.84803671     0.14700
H847        H  0.32907877  0.56740612  0.90113850     0.13000
H848        H  0.30625143  0.63015361  0.91450483     0.13000
H849        H  0.54704890  0.66351645  0.86760056     0.13000
H850        H  0.52036583  0.72732108  0.87099616     0.13000
H851        H  0.44085454  0.61996888  0.88733816     0.26200
H852        H  0.42114766  0.67718341  0.89441534     0.26200
N853        N  0.59190596  0.40772385  0.91940634    -0.36500
N854        N  0.62892135  0.42137014  0.85651728    -0.57100
N855        N  0.68998493  0.41099139  0.88889426    -0.36500
N856        N  0.65174904  0.39305138  0.94872214    -0.57100
C857        C  0.56972285  0.39938703  0.89551269     0.27100
C858        C  0.58328016  0.39118923  0.94790984     0.27100
C859        C  0.69978499  0.41753054  0.85668769     0.27100
C860        C  0.70760145  0.38369700  0.90272319     0.27100
C861        C  0.59804888  0.42146159  0.84465338     0.35700
C862        C  0.64742091  0.43347902  0.83105764     0.35700
C863        C  0.63477949  0.39869132  0.97694546     0.35700
C864        C  0.68254869  0.38932419  0.95797411     0.35700
C865        C  0.54582393  0.37905109  0.90913978    -0.21800
C866        C  0.55436327  0.37375841  0.94220422    -0.21800
C867        C  0.72531100  0.39453580  0.85002945    -0.21800
C868        C  0.72970945  0.37290711  0.87839840    -0.21800
C869        C  0.59731404  0.43287672  0.81170847    -0.22900
C870        C  0.62800881  0.43879570  0.80274579    -0.22900
C871        C  0.65516004  0.39917106  0.00484591    -0.22900
C872        C  0.68566599  0.39312608  0.99281869    -0.22900
C873        C  0.57023948  0.40955887  0.86164039    -0.18200
C874        C  0.60259414  0.38855838  0.97756788    -0.18200
C875        C  0.70333001  0.37010757  0.93696306    -0.18200
C876        C  0.68167479  0.43848176  0.83213991    -0.18200
H877        H  0.52489402  0.36819731  0.89625063     0.14700
H878        H  0.54118073  0.35770542  0.95942019     0.14700
H879        H  0.73785447  0.39167616  0.82632354     0.14700
H880        H  0.74734048  0.35184901  0.88070167     0.14700
H881        H  0.57700719  0.43634149  0.79491767     0.13000
H882        H  0.63457840  0.44420556  0.77707423     0.13000
H883        H  0.64814286  0.39954822  0.03099593     0.13000
H884        H  0.70696973  0.38801079  0.00800485     0.13000
H885        H  0.61194637  0.42350408  0.91607559     0.26200
H886        H  0.67132033  0.42482590  0.90065014     0.26200
N887        N  0.33545701  0.49350030  0.63037829    -0.36500
N888        N  0.40879927  0.49089864  0.58135874    -0.57100
N889        N  0.35542586  0.41713805  0.54617942    -0.36500
N890        N  0.31076313  0.42180423  0.59948924    -0.57100
C891        C  0.35825500  0.51489348  0.64416607     0.27100
C892        C  0.31864372  0.48088693  0.65599028     0.27100
C893        C  0.38672374  0.41586843  0.53638524     0.27100
C894        C  0.34257099  0.38417359  0.54413034     0.27100
C895        C  0.38846696  0.51598232  0.59250927     0.35700
C896        C  0.39676509  0.47783609  0.55218574     0.35700
C897        C  0.28942997  0.43575774  0.62166232     0.35700
C898        C  0.29455777  0.39941261  0.57823670     0.35700
C899        C  0.35410700  0.51778194  0.67888648    -0.21800
C900        C  0.32889241  0.49626109  0.68635674    -0.21800
C901        C  0.39406650  0.38122193  0.52707547    -0.21800
C902        C  0.36638818  0.36136110  0.53152482    -0.21800
C903        C  0.36423319  0.52123258  0.56855589    -0.22900
C904        C  0.36941508  0.49653383  0.54283115    -0.22900
C905        C  0.25951951  0.42144995  0.61546065    -0.22900
C906        C  0.26233868  0.39946092  0.58742489    -0.22900
C907        C  0.38673571  0.52324615  0.62739848    -0.18200
C908        C  0.29852311  0.45152374  0.65286655    -0.18200
C909        C  0.31029496  0.37569821  0.55478355    -0.18200
C910        C  0.40832241  0.44532591  0.53919629    -0.18200
H911        H  0.36962366  0.53076831  0.69735915     0.14700
H912        H  0.32094319  0.49018042  0.71149484     0.14700
H913        H  0.41707377  0.37085454  0.51895443     0.14700
H914        H  0.36534688  0.33303800  0.52753893     0.14700
H915        H  0.34303954  0.53778247  0.57140366     0.13000
H916        H  0.35372078  0.49113601  0.52132468     0.13000
H917        H  0.23818007  0.42548910  0.63044630     0.13000
H918        H  0.24252351  0.38520576  0.57602834     0.13000
H919        H  0.33392181  0.48351705  0.60571363     0.26200
H920        H  0.34321827  0.43965800  0.55462280     0.26200
N921        N  0.34379147  0.30469557  0.10263123    -0.36500
N922        N  0.30778388  0.35572213  0.14453572    -0.57100
N923        N  0.35139365  0.34063856  0.20240815    -0.36500
N924        N  0.38318150  0.28547315  0.15746349    -0.57100
C925        C  0.31865687  0.31131100  0.08240547     0.27100
C926        C  0.35932597  0.27616044  0.08972830     0.27100
C927        C  0.32817375  0.36092761  0.21766661     0.27100
C928        C  0.36545994  0.31759863  0.22479057     0.27100
C929        C  0.30052213  0.36577845  0.11247398     0.35700
C930        C  0.30475802  0.38535531  0.16434207     0.35700
C931        C  0.40229910  0.28051717  0.13071951     0.35700
C932        C  0.40249875  0.29615938  0.18284215     0.35700
C933        C  0.31747133  0.28598277  0.05634674    -0.21800
C934        C  0.34302098  0.26301464  0.06154512    -0.21800
C935        C  0.32785719  0.35126652  0.25142997    -0.21800
C936        C  0.35074282  0.32371028  0.25573540    -0.21800
C937        C  0.29216234  0.40123041  0.11209061    -0.22900
C938        C  0.29537586  0.41361380  0.14451149    -0.22900
C939        C  0.43392169  0.28787983  0.13894385    -0.22900
C940        C  0.43393008  0.29804277  0.17227236    -0.22900
C941        C  0.30309419  0.34421748  0.08283688    -0.18200
C942        C  0.39081499  0.26781871  0.09958669    -0.18200
C943        C  0.39256371  0.29425807  0.21609922    -0.18200
C944        C  0.30832485  0.38725663  0.20029308    -0.18200
H945        H  0.30115983  0.28535187  0.03483147     0.14700
H946        H  0.35049778  0.24148147  0.04482448     0.14700
H947        H  0.31241644  0.36235711  0.27082939     0.14700
H948        H  0.35644778  0.31061781  0.27913661     0.14700
H949        H  0.28567056  0.41697342  0.09047100     0.13000
H950        H  0.29227250  0.44085753  0.15216791     0.13000
H951        H  0.45455881  0.28569608  0.12275231     0.13000
H952        H  0.45459174  0.30444905  0.18783466     0.13000
H953        H  0.35262835  0.32228469  0.12103345     0.26200
H954        H  0.35807340  0.34343286  0.17735018     0.26200
N955        N  0.40916325  0.16132381  0.80629584    -0.36500
N956        N  0.43157572  0.11339661  0.85859490    -0.57100
N957        N  0.38255424  0.05981046  0.84374901    -0.36500
N958        N  0.35723727  0.11018682  0.79490108    -0.57100
C959        C  0.42736429  0.18285183  0.82613464     0.27100
C960        C  0.38583690  0.18147309  0.79240518     0.27100
C961        C  0.39339090  0.05054739  0.87519994     0.27100
C962        C  0.35197562  0.04774352  0.83818677     0.27100
C963        C  0.45667916  0.13477892  0.85306274     0.35700
C964        C  0.44402896  0.08354332  0.87169374     0.35700
C965        C  0.35523524  0.13192003  0.76824066     0.35700
C966        C  0.34272426  0.07984378  0.78487422     0.35700
C967        C  0.41661472  0.21754951  0.82345701    -0.21800
C968        C  0.38983469  0.21659009  0.80254456    -0.21800
C969        C  0.36900251  0.03118909  0.88975897    -0.21800
C970        C  0.34323382  0.02926853  0.86649419    -0.21800
C971        C  0.48507974  0.11875955  0.86306435    -0.22900
C972        C  0.47728934  0.08562685  0.87330310    -0.22900
C973        C  0.33976918  0.11567021  0.74114841    -0.22900
C974        C  0.33226104  0.08249029  0.75145156    -0.22900
C975        C  0.45276684  0.17096863  0.84690588    -0.18200
C976        C  0.36158861  0.16820709  0.77063219    -0.18200
C977        C  0.33325022  0.05345068  0.80752251    -0.18200
C978        C  0.42511027  0.05932427  0.88916893    -0.18200
H979        H  0.42640744  0.24086428  0.83608019     0.14700
H980        H  0.37499303  0.23907546  0.79573427     0.14700
H981        H  0.36930513  0.01959558  0.91446958     0.14700
H982        H  0.32056953  0.01619530  0.87026967     0.14700
H983        H  0.50883077  0.12998165  0.86359138     0.13000
H984        H  0.49413554  0.06607345  0.88264808     0.13000
H985        H  0.33363593  0.12705777  0.71699622     0.13000
H986        H  0.31948859  0.06319790  0.73622421     0.13000
H987        H  0.41250004  0.13413726  0.80241286     0.26200
H988        H  0.39595317  0.07322444  0.82613042     0.26200
N989        N  0.12791655  0.42313852  0.79941037    -0.36500
N990        N  0.07267839  0.38668511  0.77959414    -0.57100
N991        N  0.03200728  0.40961475  0.83840959    -0.36500
N992        N  0.08922124  0.44524000  0.85994805    -0.57100
C993        C  0.14059508  0.39698015  0.77973252     0.27100
C994        C  0.14984697  0.43074920  0.82348005     0.27100
C995        C  0.01895537  0.37842944  0.82689383     0.27100
C996        C  0.02686584  0.41417978  0.87241133     0.27100
C997        C  0.09069632  0.38216310  0.75176989     0.35700
C998        C  0.04203638  0.38144947  0.76998026     0.35700
C999        C  0.11473224  0.46706885  0.86018768     0.35700
C1000       C  0.06726666  0.46076015  0.88046296     0.35700
C1001       C  0.17151522  0.38898975  0.79044979    -0.21800
C1002       C  0.17741812  0.41029275  0.81834505    -0.21800
C1003       C  0.00395122  0.36318277  0.85410436    -0.21800
C1004       C  0.00850410  0.38584288  0.88252568    -0.21800
C1005       C  0.07205623  0.37361297  0.72419011    -0.22900
C1006       C  0.04086575  0.37481588  0.73519164    -0.22900
C1007       C  0.10903822  0.49668363  0.88046797    -0.22900
C1008       C  0.07867734  0.49291850  0.89276047    -0.22900
C1009       C  0.12396336  0.37963642  0.75326545    -0.18200
C1010       C  0.14522565  0.45587813  0.84968454    -0.18200
C1011       C  0.04050289  0.44278745  0.89322171    -0.18200
C1012       C  0.02141518  0.36481889  0.79229429    -0.18200
H1013       H  0.18755836  0.36891703  0.78017345     0.14700
H1014       H  0.19917729  0.40983681  0.83360749     0.14700
H1015       H  0.99119374  0.33833508  0.85362764     0.14700
H1016       H  0.00034480  0.38117336  0.90788373     0.14700
H1017       H  0.08084702  0.36564619  0.69967793     0.13000
H1018       H  0.02008301  0.36592143  0.72089867     0.13000
H1019       H  0.12570551  0.51765711  0.88706336     0.13000
H1020       H  0.06680494  0.51079235  0.91005076     0.13000
H1021       H  0.10555596  0.43555999  0.79686591     0.26200
H1022       H  0.04430194  0.42715153  0.82334096     0.26200
C1023       C  0.70952140  0.81559518  0.20848366     0.80300
N1024       N  0.72568292  0.80413965  0.18021936    -0.78000
C1025       C  0.74355189  0.77345994  0.18172099     0.82700
N1026       N  0.74228537  0.75340182  0.20976379    -0.78000
C1027       C  0.72567834  0.76470656  0.23697125     0.82800
N1028       N  0.71105478  0.79622730  0.23650177    -0.79700
N1029       N  0.65618377  0.61166545  0.33776141    -0.36500
N1030       N  0.67227755  0.65788469  0.39399442    -0.57100
N1031       N  0.62846628  0.62171866  0.43855020    -0.36500
N1032       N  0.61662725  0.57127307  0.38294976    -0.57100
C1033       C  0.67773197  0.63225625  0.32308245     0.27100
C1034       C  0.65361326  0.58174307  0.31886188     0.27100
C1035       C  0.64848446  0.63751650  0.46202645     0.27100
C1036       C  0.60979960  0.59730107  0.45356477     0.27100
C1037       C  0.67897466  0.67899985  0.36797192     0.35700
C1038       C  0.67234951  0.67872008  0.42211441     0.35700
C1039       C  0.60933136  0.55877212  0.35152607     0.35700
C1040       C  0.58976565  0.56699025  0.40104617     0.35700
C1041       C  0.68833693  0.61589298  0.29342195    -0.21800
C1042       C  0.67373394  0.58328533  0.29130908    -0.21800
C1043       C  0.64187395  0.62307878  0.49312787    -0.21800
C1044       C  0.61722655  0.59828556  0.48791539    -0.21800
C1045       C  0.68318959  0.71363677  0.37959409    -0.22900
C1046       C  0.67934178  0.71336364  0.41402628    -0.22900
C1047       C  0.57816156  0.54663616  0.34973484    -0.22900
C1048       C  0.56605095  0.55131202  0.38109690    -0.22900
C1049       C  0.68584027  0.66630330  0.33501482    -0.18200
C1050       C  0.63115274  0.55526595  0.32483151    -0.18200
C1051       C  0.58691888  0.57455340  0.43588983    -0.18200
C1052       C  0.67092908  0.66556431  0.45505347    -0.18200
H1053       H  0.70511240  0.62603792  0.27546043     0.14700
H1054       H  0.67694090  0.56356174  0.27134453     0.14700
H1055       H  0.65320553  0.63001529  0.51711844     0.14700
H1056       H  0.60665663  0.58220515  0.50707186     0.14700
H1057       H  0.69020476  0.73625368  0.36517112     0.13000
H1058       H  0.68231629  0.73581880  0.43116155     0.13000
H1059       H  0.56561505  0.53499002  0.32818015     0.13000
H1060       H  0.54260796  0.54302766  0.38845754     0.13000
H1061       H  0.64247464  0.61891295  0.35847271     0.26200
H1062       H  0.62651389  0.62789221  0.41318144     0.26200
C1063       C  0.66559358  0.51229948  0.08331563     0.80300
N1064       N  0.64706604  0.52037466  0.05610228    -0.78000
C1065       C  0.66073219  0.52768005  0.02643047     0.82700
N1066       N  0.69303452  0.52757357  0.02395856    -0.78000
C1067       C  0.71189905  0.51877718  0.05049688     0.82800
N1068       N  0.69798920  0.51124084  0.08027348    -0.79700
C1069       C  0.48326537  0.80404159  0.03348944     0.80300
N1070       N  0.50537223  0.80985068  0.00940019    -0.78000
C1071       C  0.50690712  0.78832278  0.98165832     0.82700
N1072       N  0.48725761  0.75992683  0.97904513    -0.78000
C1073       C  0.46550202  0.75322938  0.00319260     0.82800
N1074       N  0.46368694  0.77571717  0.03042607    -0.79700
C1075       C  0.54250023  0.47798855  0.26248236     0.80300
N1076       N  0.52363830  0.50022397  0.24470988    -0.78000
C1077       C  0.49228105  0.49370064  0.23969645     0.82700
N1078       N  0.47925554  0.46472515  0.25311728    -0.78000
C1079       C  0.49743793  0.44147811  0.27104297     0.82800
N1080       N  0.52938107  0.44843788  0.27565809    -0.79700
N1081       N  0.41902449  0.56508021  0.06869712    -0.63700
N1082       N  0.36631577  0.60231941  0.03999515    -0.57100
N1083       N  0.31517183  0.57680425  0.08403959    -0.36500
N1084       N  0.36714541  0.53991268  0.11588679    -0.57100
C1085       C  0.43326130  0.59363540  0.05569256     0.27100
C1086       C  0.43439849  0.55809005  0.09777258     0.27100
C1087       C  0.30242772  0.60787344  0.07223338     0.27100
C1088       C  0.30120472  0.56799928  0.11385502     0.27100
C1089       C  0.38969813  0.60451446  0.01700328     0.35700
C1090       C  0.33872740  0.60986583  0.02397606     0.35700
C1091       C  0.39324995  0.51881700  0.12006117     0.35700
C1092       C  0.34207045  0.52275255  0.12936742     0.35700
C1093       C  0.45917452  0.60387565  0.07583048    -0.21800
C1094       C  0.45992173  0.58119466  0.10268578    -0.21800
C1095       C  0.27858856  0.61856227  0.09461749    -0.21800
C1096       C  0.27749612  0.59334234  0.12036241    -0.21800
C1097       C  0.37702633  0.61294386  0.98582471    -0.22900
C1098       C  0.34445732  0.61544846  0.99019592    -0.22900
C1099       C  0.38481472  0.48797550  0.13583621    -0.22900
C1100       C  0.35250559  0.49043598  0.14175862    -0.22900
C1101       C  0.42091687  0.61173629  0.02771336    -0.18200
C1102       C  0.42481736  0.53187089  0.11989623    -0.18200
C1103       C  0.31127927  0.53832438  0.13481046    -0.18200
C1104       C  0.31305835  0.62512192  0.04167331    -0.18200
H1105       H  0.47486433  0.62616753  0.07233626     0.14700
H1106       H  0.47650847  0.58243962  0.12397585     0.14700
H1107       H  0.26357002  0.64199307  0.09271746     0.14700
H1108       H  0.26183692  0.59435653  0.14198326     0.14700
H1109       H  0.39015471  0.62006972  0.96363236     0.13000
H1110       H  0.32703457  0.62502024  0.97231320     0.13000
H1111       H  0.40087480  0.46734601  0.14470835     0.13000
H1112       H  0.33892794  0.47150333  0.15556730     0.13000
H1113       H  0.39913914  0.55141212  0.05893170     0.26200
H1114       H  0.33288034  0.56184564  0.07187193     0.26200
N1115       N  0.55872902  0.37643906  0.15442315    -0.36500
N1116       N  0.51943737  0.30204530  0.18171529    -0.57100
N1117       N  0.59599320  0.27525644  0.13463915    -0.36500
N1118       N  0.62011675  0.34376487  0.12597729    -0.57100
C1119       C  0.53263987  0.38461605  0.17338762     0.27100
C1120       C  0.58017998  0.40233937  0.16022290     0.27100
C1121       C  0.58438818  0.24981000  0.15564846     0.27100
C1122       C  0.62577223  0.26668560  0.12224460     0.27100
C1123       C  0.50772430  0.32863819  0.16358031     0.35700
C1124       C  0.53170219  0.27833652  0.15975431     0.35700
C1125       C  0.62458294  0.37901955  0.12339074     0.35700
C1126       C  0.63990839  0.32722548  0.10336519     0.35700
C1127       C  0.53761444  0.41621260  0.19087984    -0.21800
C1128       C  0.56779572  0.42712849  0.18306473    -0.21800
C1129       C  0.60812202  0.22368091  0.15697903    -0.21800
C1130       C  0.63345120  0.23369652  0.13549959    -0.21800
C1131       C  0.51092760  0.32126864  0.12926291    -0.22900
C1132       C  0.52584585  0.28853637  0.12674708    -0.22900
C1133       C  0.64778365  0.38507874  0.09948593    -0.22900
C1134       C  0.65742494  0.35262794  0.08685244    -0.22900
C1135       C  0.50650186  0.36193578  0.17877217    -0.18200
C1136       C  0.60958287  0.40592309  0.14356924    -0.18200
C1137       C  0.64498864  0.28968464  0.10044481    -0.18200
C1138       C  0.55242783  0.25191278  0.17166624    -0.18200
H1139       H  0.52139838  0.42940271  0.20809094     0.14700
H1140       H  0.57952941  0.45053990  0.19314847     0.14700
H1141       H  0.60706761  0.19950584  0.17105768     0.14700
H1142       H  0.65542810  0.21883835  0.13121210     0.14700
H1143       H  0.50622939  0.33913869  0.10872635     0.13000
H1144       H  0.53406812  0.27545647  0.10376842     0.13000
H1145       H  0.65710654  0.41031911  0.09194600     0.13000
H1146       H  0.67617915  0.34874929  0.06848424     0.13000
H1147       H  0.56217851  0.35449444  0.13854833     0.26200
H1148       H  0.58366792  0.29819818  0.12856299     0.26200
N1149       N  0.61088896  0.66245842  0.90056249    -0.36500
N1150       N  0.63191752  0.59986018  0.85450100    -0.57100
N1151       N  0.64583203  0.64836264  0.80509230    -0.36500
N1152       N  0.60708878  0.72861009  0.85230967    -0.57100
C1153       C  0.59780676  0.63346941  0.91371474     0.27100
C1154       C  0.59665270  0.69107484  0.91561298     0.27100
C1155       C  0.65049294  0.61792849  0.78712253     0.27100
C1156       C  0.63164828  0.67267436  0.78511125     0.27100
C1157       C  0.63087839  0.58594187  0.88556872     0.35700
C1158       C  0.65301005  0.57964065  0.83628548     0.35700
C1159       C  0.62261355  0.73308408  0.88192807     0.35700
C1160       C  0.62919548  0.71797399  0.83000522     0.35700
C1161       C  0.57398714  0.64360072  0.93632861    -0.21800
C1162       C  0.57312104  0.68010686  0.93738172    -0.21800
C1163       C  0.64074836  0.62341683  0.75391684    -0.21800
C1164       C  0.62786826  0.65781963  0.75291190    -0.21800
C1165       C  0.65051524  0.55602391  0.88671770    -0.22900
C1166       C  0.66407065  0.55176055  0.85550089    -0.22900
C1167       C  0.65509329  0.72567803  0.87840199    -0.22900
C1168       C  0.65935560  0.71685259  0.84480375    -0.22900
C1169       C  0.61287879  0.59998469  0.91306743    -0.18200
C1170       C  0.60603256  0.72649836  0.91088535    -0.18200
C1171       C  0.62035061  0.70607668  0.79782115    -0.18200
C1172       C  0.66118042  0.58577976  0.80216191    -0.18200
H1173       H  0.56047276  0.62641728  0.95230576     0.14700
H1174       H  0.55822778  0.69654877  0.95365174     0.14700
H1175       H  0.64075576  0.60413274  0.73327332     0.14700
H1176       H  0.61666983  0.67015029  0.73126304     0.14700
H1177       H  0.65518335  0.53901221  0.90786612     0.13000
H1178       H  0.68038648  0.53057681  0.84833543     0.13000
H1179       H  0.67302078  0.72390070  0.89838374     0.13000
H1180       H  0.68145354  0.70979615  0.83251475     0.13000
H1181       H  0.63080715  0.66248354  0.88492391     0.26200
H1182       H  0.65133894  0.65204634  0.83059563     0.26200
N1183       N  0.84632289  0.63847392  0.07747603    -0.36500
N1184       N  0.89103609  0.58153703  0.06278839    -0.57100
N1185       N  0.93678474  0.61273226  0.11251433    -0.36500
N1186       N  0.89028063  0.67299176  0.12344098    -0.57100
C1187       C  0.83097198  0.61949227  0.05320694     0.27100
C1188       C  0.83217175  0.67068561  0.07923242     0.27100
C1189       C  0.95640919  0.59140873  0.09263112     0.27100
C1190       C  0.95445500  0.63730987  0.13045528     0.27100
C1191       C  0.86294640  0.56498720  0.05743390     0.35700
C1192       C  0.91226992  0.55576082  0.07001420     0.35700
C1193       C  0.86311814  0.69246543  0.12904407     0.35700
C1194       C  0.90934472  0.67727587  0.15120539     0.35700
C1195       C  0.80694189  0.63987437  0.03865708    -0.21800
C1196       C  0.80817623  0.67274445  0.05461838    -0.21800
C1197       C  0.98766617  0.60269339  0.09839184    -0.21800
C1198       C  0.98652147  0.63086441  0.12236723    -0.21800
C1199       C  0.86644683  0.52860718  0.06038473    -0.22900
C1200       C  0.89803945  0.52272355  0.06829615    -0.22900
C1201       C  0.86511058  0.70974972  0.16007757    -0.22900
C1202       C  0.89409014  0.70046289  0.17400652    -0.22900
C1203       C  0.83427651  0.58263608  0.04975381    -0.18200
C1204       C  0.83621040  0.69463050  0.10675555    -0.18200
C1205       C  0.94158977  0.66416151  0.15428132    -0.18200
C1206       C  0.94516929  0.56154131  0.07140431    -0.18200
H1207       H  0.78913889  0.63116232  0.02018769     0.14700
H1208       H  0.79137903  0.69440034  0.05086686     0.14700
H1209       H  0.00912521  0.59138658  0.08720180     0.14700
H1210       H  0.00709676  0.64512989  0.13237386     0.14700
H1211       H  0.84823104  0.50850427  0.05703323     0.13000
H1212       H  0.90949713  0.49720453  0.07184334     0.13000
H1213       H  0.84745634  0.72709131  0.17183023     0.13000
H1214       H  0.90218159  0.71049822  0.19832083     0.13000
H1215       H  0.86230033  0.62780778  0.09493726     0.26200
H1216       H  0.91206842  0.61006060  0.11488406     0.26200
N1217       N  0.54250262  0.89737235  0.19930404    -0.36500
N1218       N  0.60980023  0.93097218  0.19906361    -0.57100
N1219       N  0.60362887  0.96882045  0.13755032    -0.36500
N1220       N  0.54413705  0.92611557  0.12672395    -0.57100
C1221       C  0.56079064  0.87575589  0.21852605     0.27100
C1222       C  0.52178362  0.87689983  0.18163442     0.27100
C1223       C  0.63533387  0.97397080  0.14600570     0.27100
C1224       C  0.59846023  0.97230354  0.10370334     0.27100
C1225       C  0.59815494  0.92166634  0.22887249     0.35700
C1226       C  0.62573584  0.96112056  0.20437541     0.35700
C1227       C  0.51423743  0.92090388  0.13869778     0.35700
C1228       C  0.54201522  0.95511548  0.10739611     0.35700
C1229       C  0.54956824  0.84139735  0.21559881    -0.21800
C1230       C  0.52434681  0.84217869  0.19245627    -0.21800
C1231       C  0.65085153  0.98251669  0.11648266    -0.21800
C1232       C  0.62753841  0.98227227  0.09023560    -0.21800
C1233       C  0.60694180  0.94578668  0.25397728    -0.22900
C1234       C  0.62455150  0.97119202  0.23831927    -0.22900
C1235       C  0.49309366  0.94611452  0.12665719    -0.22900
C1236       C  0.51086049  0.96821314  0.10714023    -0.22900
C1237       C  0.59026387  0.88648586  0.23316685    -0.18200
C1238       C  0.50519947  0.88867303  0.15256267    -0.18200
C1239       C  0.56726357  0.96728935  0.08717256    -0.18200
C1240       C  0.64796061  0.97162524  0.18048582    -0.18200
H1241       H  0.55999307  0.81803519  0.22689114     0.14700
H1242       H  0.51152612  0.81935651  0.18244042     0.14700
H1243       H  0.67587521  0.98942243  0.11410492     0.14700
H1244       H  0.63134764  0.98995940  0.06461214     0.14700
H1245       H  0.60399636  0.94353790  0.28085432     0.13000
H1246       H  0.63765262  0.99232623  0.25094296     0.13000
H1247       H  0.46758820  0.94793887  0.13112404     0.13000
H1248       H  0.50219450  0.99134658  0.09409635     0.13000
H1249       H  0.54629162  0.92426870  0.19535941     0.26200
H1250       H  0.58546740  0.96364597  0.15451921     0.26200
O1251       O  0.66586935  0.50096124  0.69197535    -0.80800
O1252       O  0.77003627  0.51665950  0.81314643    -0.65500
O1253       O  0.71414082  0.51044770  0.73513304    -1.12100
C1254       C  0.80185029  0.43805402  0.70306050     1.06100
O1255       O  0.81374064  0.48656834  0.79380345    -0.78700
O1256       O  0.80893281  0.52015574  0.70201006    -0.66300
Ni1257     Ni  0.67239151  0.49373640  0.74072485     1.34900
C1258       C  0.78825023  0.52766387  0.67920390     0.84800
O1259       O  0.70623893  0.54519569  0.79561016    -0.79200
O1260       O  0.66453891  0.54217614  0.75688704    -0.89500
C1261       C  0.79719103  0.50000217  0.81829060     0.84400
O1262       O  0.67465407  0.48269564  0.78860100    -0.67700
O1263       O  0.81779675  0.45489026  0.72670942    -0.87000
C1264       C  0.69490589  0.46394817  0.80462372     0.85200
C1265       C  0.67878854  0.55675127  0.78305937     1.06800
H1266       H  0.76835189  0.46198868  0.76002010     0.38600
O1267       O  0.76754973  0.48503337  0.74985597    -1.09700
O1268       O  0.75888030  0.51880580  0.68301479    -0.66300
Ni1269     Ni  0.74176978  0.47978726  0.71094298     1.26300
O1270       O  0.72425636  0.46984920  0.79841762    -0.66600
O1271       O  0.77338174  0.44737341  0.69272108    -0.78800
C1272       C  0.68198397  0.48515180  0.66817781     0.84600
O1273       O  0.71088051  0.47297499  0.67351918    -0.66000
Ni1274     Ni  0.80946150  0.50153005  0.74725937     1.27400
Ni1275     Ni  0.73939861  0.51357931  0.77516328     1.26100
H1276       H  0.71380268  0.53320082  0.72436611     0.39100
O1277       O  0.00031037  0.04232765  0.59886541    -0.80800
O1278       O  0.03137838  0.91677077  0.50001790    -0.65500
O1279       O  0.02080192  0.00159702  0.55111301    -1.12100
C1280       C  0.95745541  0.02058769  0.44930899     1.06100
O1281       O  0.02232545  0.93844076  0.44735525    -0.78700
O1282       O  0.05819240  0.00023365  0.47714698    -0.66300
Ni1283     Ni  0.00272247  0.99024544  0.59122332     1.34900
C1284       C  0.05783519  0.03327641  0.48654205     0.84800
O1285       O  0.05414908  0.94198699  0.56903787    -0.79200
O1286       O  0.04544214  0.98507692  0.60917251    -0.89500
C1287       C  0.02713794  0.91208855  0.46740974     0.84400
O1288       O  0.96134948  0.98187154  0.57052531    -0.67700
O1289       O  0.97377356  0.99329194  0.43879154    -0.87000
C1290       C  0.96088095  0.94900105  0.56070877     0.85200
C1291       C  0.05974498  0.95615397  0.59960089     1.06800
H1292       H  0.97920581  0.96562302  0.49358302     0.38600
O1293       O  0.99914824  0.97837876  0.49633555    -1.09700
O1294       O  0.03139426  0.04581888  0.49892643    -0.66300
Ni1295     Ni  0.99308837  0.02148691  0.51811398     1.26300
O1296       O  0.98697956  0.93565561  0.54803221    -0.66600
O1297       O  0.96424027  0.03622291  0.47891789    -0.78800
C1298       C  0.99609223  0.06849862  0.57846550     0.84600
O1299       O  0.98818583  0.06375260  0.54668402    -0.66000
Ni1300     Ni  0.01689988  0.99025303  0.45636282     1.27400
Ni1301     Ni  0.02633519  0.95839275  0.52935928     1.26100
H1302       H  0.04091461  0.01409889  0.55365651     0.39100
C1303       C  0.51107567  0.03652249  0.71379112     0.80300
N1304       N  0.53269228  0.03674335  0.68867580    -0.78000
C1305       C  0.52758361  0.01867019  0.65934670     0.82700
N1306       N  0.50021165  0.99983900  0.65539004    -0.78000
C1307       C  0.47762242  0.99977986  0.67990806     0.82800
N1308       N  0.48331803  0.01819439  0.70942010    -0.79700
C1309       C  0.84913200  0.04163424  0.51607099     0.80300
N1310       N  0.82375516  0.04893344  0.49567234    -0.78000
C1311       C  0.79671191  0.03003251  0.49694234     0.82700
N1312       N  0.79460647  0.00316464  0.51839305    -0.78000
C1313       C  0.81950916  0.99521322  0.53917663     0.82800
N1314       N  0.84686370  0.01466696  0.53845148    -0.79700
C1315       C  0.51436028  0.20076100  0.57653260     0.80300
N1316       N  0.52824688  0.23245675  0.57040677    -0.78000
C1317       C  0.55265748  0.23391432  0.54802395     0.82700
N1318       N  0.56183249  0.20401709  0.53141695    -0.78000
C1319       C  0.54778431  0.17247470  0.53658669     0.82800
N1320       N  0.52391126  0.17102847  0.55931578    -0.79700
N1321       N  0.63052033  0.06332940  0.40995662    -0.36500
N1322       N  0.67304859  0.07069116  0.35784186    -0.57100
N1323       N  0.62134787  0.08934860  0.31178120    -0.36500
N1324       N  0.57533651  0.08199271  0.36689708    -0.57100
C1325       C  0.65792515  0.05241103  0.42494686     0.27100
C1326       C  0.60621262  0.05440337  0.42968289     0.27100
C1327       C  0.64251984  0.07130994  0.29076938     0.27100
C1328       C  0.59250146  0.09495236  0.29603049     0.27100
C1329       C  0.69365656  0.07715586  0.38318241     0.35700
C1330       C  0.68648439  0.08090582  0.32937647     0.35700
C1331       C  0.56266699  0.08474470  0.39844277     0.35700
C1332       C  0.55722434  0.10333963  0.34681112     0.35700
C1333       C  0.65092963  0.03457912  0.45417775    -0.21800
C1334       C  0.61798413  0.03619471  0.45735263    -0.21800
C1335       C  0.62635244  0.06572619  0.26019559    -0.21800
C1336       C  0.59545744  0.08132018  0.26319025    -0.21800
C1337       C  0.72171674  0.09130761  0.37095918    -0.22900
C1338       C  0.71719067  0.09349858  0.33636672    -0.22900
C1339       C  0.53564069  0.10584332  0.39815603    -0.22900
C1340       C  0.53221951  0.11782877  0.36621917    -0.22900
C1341       C  0.68850491  0.06342030  0.41507359    -0.18200
C1342       C  0.57708934  0.07285102  0.42881579    -0.18200
C1343       C  0.56405862  0.11089324  0.31203030    -0.18200
C1344       C  0.67638904  0.06407881  0.29950914    -0.18200
H1345       H  0.66780336  0.02442864  0.47271009     0.14700
H1346       H  0.60453404  0.02826101  0.47911720     0.14700
H1347       H  0.63620577  0.05363230  0.23750682     0.14700
H1348       H  0.57700048  0.08155102  0.24367390     0.14700
H1349       H  0.74371224  0.09676842  0.38493818     0.13000
H1350       H  0.73533155  0.09986988  0.31816741     0.13000
H1351       H  0.52067080  0.11347470  0.41931383     0.13000
H1352       H  0.51341353  0.13640628  0.36044473     0.13000
H1353       H  0.62859408  0.08132050  0.39062185     0.26200
H1354       H  0.62607884  0.09891142  0.33615288     0.26200
N1355       N  0.37515098  0.09218180  0.62390156    -0.36500
N1356       N  0.33850266  0.15547408  0.61688281    -0.57100
N1357       N  0.27687901  0.11757453  0.61614119    -0.36500
N1358       N  0.31732436  0.05459270  0.62440111    -0.57100
C1359       C  0.39849788  0.11543169  0.61725191     0.27100
C1360       C  0.38597846  0.05952925  0.61464131     0.27100
C1361       C  0.26701627  0.15187924  0.61319226     0.27100
C1362       C  0.26330779  0.10308092  0.64390469     0.27100
C1363       C  0.36675842  0.17032262  0.62597012     0.35700
C1364       C  0.31714612  0.18225325  0.61462511     0.35700
C1365       C  0.33614240  0.02565866  0.62177391     0.35700
C1366       C  0.28916028  0.04429577  0.63666441     0.35700
C1367       C  0.42489116  0.09735446  0.60415561    -0.21800
C1368       C  0.41713366  0.06202767  0.60296471    -0.21800
C1369       C  0.24605644  0.15930519  0.63944409    -0.21800
C1370       C  0.24359178  0.12886349  0.65856644    -0.21800
C1371       C  0.36303937  0.20666756  0.63037068    -0.22900
C1372       C  0.33150222  0.21428648  0.62286052    -0.22900
C1373       C  0.31925835  0.99578877  0.62985581    -0.22900
C1374       C  0.28944955  0.00765098  0.63938135    -0.22900
C1375       C  0.39651225  0.15241953  0.62346846    -0.18200
C1376       C  0.36964645  0.02739382  0.61971507    -0.18200
C1377       C  0.27032306  0.06793300  0.65638774    -0.18200
C1378       C  0.28687777  0.17824287  0.59908823    -0.18200
H1379       H  0.44749892  0.10832711  0.59641230     0.14700
H1380       H  0.43280550  0.04083675  0.59435890     0.14700
H1381       H  0.23636954  0.18513239  0.64636806     0.14700
H1382       H  0.22980117  0.12690191  0.68137660     0.14700
H1383       H  0.38160614  0.22588915  0.63591859     0.13000
H1384       H  0.32063197  0.24041738  0.62200361     0.13000
H1385       H  0.32849831  0.96904523  0.63219394     0.13000
H1386       H  0.27157671  0.99162790  0.65123624     0.13000
H1387       H  0.35394885  0.09852414  0.63627036     0.26200
H1388       H  0.29436052  0.10601553  0.60081372     0.26200
C1389       C  0.74270879  0.21484834  0.66981739     0.80300
N1390       N  0.74360341  0.24524712  0.65248703    -0.78000
C1391       C  0.72649362  0.27397905  0.66288671     0.82700
N1392       N  0.70806717  0.27212468  0.69083474    -0.78000
C1393       C  0.70681773  0.24168865  0.70821266     0.82800
N1394       N  0.72464308  0.21337130  0.69780334    -0.79700
N1395       N  0.67504882  0.38428972  0.53006317    -0.36500
N1396       N  0.60738084  0.40849489  0.54318634    -0.57100
N1397       N  0.62293261  0.46511835  0.59296037    -0.36500
N1398       N  0.70353700  0.43510243  0.61083734    -0.57100
C1399       C  0.65855269  0.35597647  0.51812582     0.27100
C1400       C  0.70309140  0.37203441  0.54275890     0.27100
C1401       C  0.59027329  0.46801834  0.59141724     0.27100
C1402       C  0.63446787  0.48034515  0.62234654     0.27100
C1403       C  0.60842734  0.38842515  0.51447765     0.35700
C1404       C  0.58356372  0.43222941  0.53823152     0.35700
C1405       C  0.71264552  0.42457289  0.57954242     0.35700
C1406       C  0.69027101  0.46751857  0.60800711     0.35700
C1407       C  0.67760401  0.32585072  0.51933055    -0.21800
C1408       C  0.70608739  0.33607074  0.53456943    -0.21800
C1409       C  0.58051560  0.48617636  0.62049681    -0.21800
C1410       C  0.60816286  0.49335729  0.64018521    -0.21800
C1411       C  0.58460198  0.39784614  0.49218469    -0.22900
C1412       C  0.56998776  0.42697925  0.50635490    -0.22900
C1413       C  0.70753193  0.45163645  0.55694638    -0.22900
C1414       C  0.69268376  0.47877443  0.57498428    -0.22900
C1415       C  0.62526467  0.35663512  0.51199815    -0.18200
C1416       C  0.71794590  0.38841082  0.57131723    -0.18200
C1417       C  0.66824876  0.48047743  0.63220684    -0.18200
C1418       C  0.57034670  0.45425461  0.56389426    -0.18200
H1419       H  0.67060952  0.29894025  0.51302669     0.14700
H1420       H  0.72481673  0.31813631  0.54301155     0.14700
H1421       H  0.55605619  0.49296392  0.62718877     0.14700
H1422       H  0.60861705  0.50689164  0.66456513     0.14700
H1423       H  0.57792678  0.38414044  0.46896984     0.13000
H1424       H  0.55089344  0.44220065  0.49511984     0.13000
H1425       H  0.71096272  0.45040324  0.52985662     0.13000
H1426       H  0.68211753  0.50248883  0.56451339     0.13000
H1427       H  0.66525220  0.40934496  0.53464876     0.26200
H1428       H  0.63693718  0.45274898  0.57455115     0.26200
N1429       N  0.67689052  0.91142660  0.60865198    -0.36500
N1430       N  0.61423147  0.86971454  0.62242551    -0.57100
N1431       N  0.65026494  0.80783640  0.62477564    -0.36500
N1432       N  0.72466619  0.85048184  0.58889239    -0.57100
C1433       C  0.65323496  0.93400624  0.59950480     0.27100
C1434       C  0.70502383  0.92501486  0.59795033     0.27100
C1435       C  0.62063995  0.79466856  0.62914626     0.27100
C1436       C  0.66598281  0.78713024  0.60199300     0.27100
C1437       C  0.60706780  0.90431048  0.62770685     0.35700
C1438       C  0.59506070  0.85119375  0.64327398     0.35700
C1439       C  0.73634017  0.87390506  0.61166727     0.35700
C1440       C  0.71456357  0.82247574  0.60564573     0.35700
C1441       C  0.66634928  0.96178903  0.58193654    -0.21800
C1442       C  0.69913965  0.95616645  0.58110232    -0.21800
C1443       C  0.61753868  0.76362192  0.61007823    -0.21800
C1444       C  0.64606108  0.75932855  0.59209036    -0.21800
C1445       C  0.58267487  0.90771237  0.65127032    -0.22900
C1446       C  0.57547955  0.87428381  0.66148179    -0.22900
C1447       C  0.73301694  0.86104072  0.64393018    -0.22900
C1448       C  0.71940318  0.82785701  0.64011511    -0.22900
C1449       C  0.62126189  0.93314925  0.61109580    -0.18200
C1450       C  0.73557709  0.90954080  0.60402683    -0.18200
C1451       C  0.69641200  0.79626594  0.58883259    -0.18200
C1452       C  0.59590921  0.81369277  0.64618714    -0.18200
H1453       H  0.65369993  0.98459333  0.57208136     0.14700
H1454       H  0.71661039  0.97326367  0.56990640     0.14700
H1455       H  0.59620863  0.74758464  0.60722979     0.14700
H1456       H  0.65120082  0.73860993  0.57354939     0.14700
H1457       H  0.57170349  0.93191119  0.66095218     0.13000
H1458       H  0.55804332  0.86816261  0.68043493     0.13000
H1459       H  0.73688948  0.87548545  0.66755288     0.13000
H1460       H  0.71186535  0.81091646  0.66018395     0.13000
H1461       H  0.67420070  0.88910030  0.62331396     0.26200
H1462       H  0.65868552  0.83124194  0.63594897     0.26200
N1463       N  0.90273920  0.15902998  0.59718714    -0.36500
N1464       N  0.91972018  0.14515435  0.66359094    -0.57100
N1465       N  0.98287490  0.11611148  0.64883778    -0.36500
N1466       N  0.96952240  0.15496153  0.57552452    -0.57100
C1467       C  0.87582083  0.16980864  0.61316316     0.27100
C1468       C  0.90330115  0.17488106  0.56698570     0.27100
C1469       C  0.98811140  0.14226820  0.67287089     0.27100
C1470       C  0.00604300  0.11824667  0.62535359     0.27100
C1471       C  0.88807994  0.14340735  0.66843384     0.35700
C1472       C  0.93427936  0.14075815  0.69350319     0.35700
C1473       C  0.95705873  0.16474971  0.54561397     0.35700
C1474       C  0.99510662  0.13405480  0.56884646     0.35700
C1475       C  0.85877501  0.19282191  0.59250450    -0.21800
C1476       C  0.87599571  0.19553094  0.56307130    -0.21800
C1477       C  0.01597196  0.15995362  0.66558553    -0.21800
C1478       C  0.02678296  0.14546033  0.63526287    -0.21800
C1479       C  0.88223287  0.13613598  0.70208637    -0.22900
C1480       C  0.91178184  0.13626158  0.71838008    -0.22900
C1481       C  0.97761242  0.15405868  0.52003181    -0.22900
C1482       C  0.00140975  0.13382133  0.53460456    -0.22900
C1483       C  0.86602697  0.15806435  0.64525070    -0.18200
C1484       C  0.92359363  0.16358578  0.54073840    -0.18200
C1485       C  0.00220873  0.10651359  0.59106404    -0.18200
C1486       C  0.96549651  0.15266122  0.69813729    -0.18200
H1487       H  0.83600046  0.20574674  0.59770529     0.14700
H1488       H  0.86849589  0.20977761  0.54095446     0.14700
H1489       H  0.02563390  0.18300087  0.67877644     0.14700
H1490       H  0.04612698  0.15580785  0.62045683     0.14700
H1491       H  0.85918270  0.13542899  0.71436921     0.13000
H1492       H  0.91611129  0.13545141  0.74538371     0.13000
H1493       H  0.97246516  0.15519670  0.49336835     0.13000
H1494       H  0.01845299  0.11712705  0.52115305     0.13000
H1495       H  0.91893787  0.13971529  0.60509507     0.26200
H1496       H  0.96262789  0.10006769  0.64633299     0.26200
N1497       N  0.59936468  0.16511593  0.83695512    -0.36500
N1498       N  0.64159821  0.20057239  0.88755002    -0.57100
N1499       N  0.62387353  0.15058929  0.93936764    -0.36500
N1500       N  0.58015564  0.11623069  0.88771707    -0.57100
C1501       C  0.61322246  0.18860200  0.81681228     0.27100
C1502       C  0.58167253  0.14315065  0.81694096     0.27100
C1503       C  0.64233392  0.17319521  0.95874884     0.27100
C1504       C  0.60574546  0.13005564  0.95968742     0.27100
C1505       C  0.64550681  0.22188538  0.86086126     0.35700
C1506       C  0.65862056  0.21518336  0.91353871     0.35700
C1507       C  0.56972935  0.09809435  0.85983797     0.35700
C1508       C  0.57917938  0.09352483  0.91342311     0.35700
C1509       C  0.60348654  0.18212866  0.78352312    -0.21800
C1510       C  0.58330407  0.15370143  0.78368197    -0.21800
C1511       C  0.63656373  0.16599836  0.99238835    -0.21800
C1512       C  0.61326971  0.13943772  0.99297689    -0.21800
C1513       C  0.66426080  0.25057761  0.86997439    -0.22900
C1514       C  0.67210422  0.24670896  0.90323319    -0.22900
C1515       C  0.56193808  0.06379730  0.86784111    -0.22900
C1516       C  0.56832510  0.06069459  0.90152979    -0.22900
C1517       C  0.63605798  0.21414469  0.82717374    -0.18200
C1518       C  0.56673109  0.11185339  0.82709034    -0.18200
C1519       C  0.58353864  0.10276516  0.94813091    -0.18200
C1520       C  0.66293351  0.20080692  0.94634716    -0.18200
H1521       H  0.61070780  0.19570104  0.76112145     0.14700
H1522       H  0.57247034  0.14116475  0.76150450     0.14700
H1523       H  0.64715619  0.17934462  0.01426414     0.14700
H1524       H  0.60326304  0.12815657  0.01538445     0.14700
H1525       H  0.67162873  0.27200136  0.85415546     0.13000
H1526       H  0.68548238  0.26577885  0.91817331     0.13000
H1527       H  0.55268417  0.04304442  0.85120720     0.13000
H1528       H  0.56467773  0.03701963  0.91589204     0.13000
H1529       H  0.60314589  0.16346431  0.86262711     0.26200
H1530       H  0.62406010  0.14862983  0.91325048     0.26200
C1531       C  0.02788020  0.71038253  0.55177284     0.80300
N1532       N  0.00015638  0.69284770  0.54421845    -0.78000
C1533       C  0.99687182  0.67514114  0.51396606     0.82700
N1534       N  0.02157366  0.67442899  0.49200772    -0.78000
C1535       C  0.04942140  0.69110274  0.49946422     0.82800
N1536       N  0.05218302  0.70920314  0.52918506    -0.79700
N1537       N  0.20426440  0.65654597  0.38856380    -0.36500
N1538       N  0.21253962  0.61111283  0.32979236    -0.57100
N1539       N  0.15313118  0.62597103  0.29135502    -0.36500
N1540       N  0.14199103  0.67054637  0.34961499    -0.57100
C1541       C  0.22309454  0.63052709  0.40096387     0.27100
C1542       C  0.18334144  0.66538634  0.41301803     0.27100
C1543       C  0.16036116  0.59096734  0.28354710     0.27100
C1544       C  0.12065950  0.63304651  0.28880548     0.27100
C1545       C  0.24106735  0.61112318  0.34588190     0.35700
C1546       C  0.21713214  0.59783009  0.29862677     0.35700
C1547       C  0.14539298  0.69478521  0.37527005     0.35700
C1548       C  0.12177173  0.68555200  0.32675404     0.35700
C1549       C  0.21596446  0.62540780  0.43468675    -0.21800
C1550       C  0.19075806  0.64766856  0.44239691    -0.21800
C1551       C  0.13117940  0.57522874  0.27476049    -0.21800
C1552       C  0.10659392  0.60152286  0.27744111    -0.21800
C1553       C  0.26488865  0.59916488  0.32443494    -0.22900
C1554       C  0.24991361  0.59201086  0.29383510    -0.22900
C1555       C  0.12714083  0.72441956  0.36919754    -0.22900
C1556       C  0.11326766  0.71899559  0.33819517    -0.22900
C1557       C  0.24158558  0.60717183  0.38065309    -0.18200
C1558       C  0.15591898  0.68617864  0.40777005    -0.18200
C1559       C  0.10542628  0.66687973  0.30008102    -0.18200
C1560       C  0.19323235  0.57544589  0.28529855    -0.18200
H1561       H  0.22569680  0.60533899  0.45100752     0.14700
H1562       H  0.17780535  0.64856217  0.46595345     0.14700
H1563       H  0.12776556  0.54771381  0.26743865     0.14700
H1564       H  0.08116566  0.59722133  0.27329115     0.14700
H1565       H  0.28935266  0.59213468  0.33130424     0.13000
H1566       H  0.26068087  0.57753481  0.27287099     0.13000
H1567       H  0.12236997  0.74624005  0.38656989     0.13000
H1568       H  0.09636851  0.73620526  0.32650142     0.13000
H1569       H  0.20347322  0.66553641  0.36381460     0.26200
H1570       H  0.17002784  0.64499247  0.29863619     0.26200
C1571       C  0.28650341  0.75249805  0.79433996     0.80300
N1572       N  0.28935112  0.73116623  0.82110709    -0.78000
C1573       C  0.26474528  0.72748225  0.84263392     0.82700
N1574       N  0.23688953  0.74580692  0.83708244    -0.78000
C1575       C  0.23392321  0.76827168  0.81091092     0.82800
N1576       N  0.25889397  0.77086043  0.78935428    -0.79700
C1577       C  0.23830884  0.53647493  0.48279376     0.80300
N1578       N  0.21172700  0.52729593  0.50014715    -0.78000
C1579       C  0.20562836  0.54289357  0.53085763     0.82700
N1580       N  0.22580486  0.56771314  0.54379859    -0.78000
C1581       C  0.25145888  0.57775919  0.52600342     0.82800
N1582       N  0.25787125  0.56174503  0.49606579    -0.79700
N1583       N  0.37351741  0.67152090  0.63510987    -0.36500
N1584       N  0.41760801  0.63270629  0.58769725    -0.57100
N1585       N  0.47091958  0.64564658  0.63173737    -0.36500
N1586       N  0.42334641  0.68381731  0.67740898    -0.57100
C1587       C  0.35742410  0.67345702  0.60589148     0.27100
C1588       C  0.35976492  0.69492649  0.65686459     0.27100
C1589       C  0.48596755  0.63104308  0.60399046     0.27100
C1590       C  0.48842253  0.67273970  0.64646561     0.27100
C1591       C  0.38818332  0.62738292  0.57364625     0.35700
C1592       C  0.43726240  0.60706066  0.57468498     0.35700
C1593       C  0.40029907  0.68831321  0.70048100     0.35700
C1594       C  0.45139511  0.68063053  0.69353072     0.35700
C1595       C  0.33255580  0.69807310  0.60883550    -0.21800
C1596       C  0.33404646  0.71170176  0.64138518    -0.21800
C1597       C  0.51507220  0.64870091  0.60159808    -0.21800
C1598       C  0.51615890  0.67537138  0.62745082    -0.21800
C1599       C  0.38910030  0.59896443  0.55109070    -0.22900
C1600       C  0.41984319  0.58602641  0.55173185    -0.22900
C1601       C  0.41349111  0.68802779  0.73267901    -0.22900
C1602       C  0.44617402  0.68367420  0.72825255    -0.22900
C1603       C  0.36021975  0.64776485  0.58032633    -0.18200
C1604       C  0.36927553  0.69900927  0.69082529    -0.18200
C1605       C  0.47854841  0.69273208  0.67709904    -0.18200
C1606       C  0.47125225  0.60496094  0.58026154    -0.18200
H1607       H  0.31420872  0.70394291  0.59009256     0.14700
H1608       H  0.31749876  0.73061458  0.65271625     0.14700
H1609       H  0.53280246  0.64442211  0.58213957     0.14700
H1610       H  0.53544530  0.69398392  0.63195579     0.14700
H1611       H  0.36964010  0.58876119  0.53539161     0.13000
H1612       H  0.42810511  0.56418345  0.53592203     0.13000
H1613       H  0.40150555  0.69397556  0.75627608     0.13000
H1614       H  0.46419474  0.68806369  0.74773809     0.13000
H1615       H  0.39066208  0.65218942  0.64054803     0.26200
H1616       H  0.44880950  0.63754482  0.64023435     0.26200
C1617       C  0.00031209  0.58638574  0.75881560     0.80300
N1618       N  0.99105195  0.55271502  0.76480507    -0.78000
C1619       C  0.96937099  0.53581484  0.74456586     0.82700
N1620       N  0.95483073  0.55463195  0.72007000    -0.78000
C1621       C  0.96371319  0.58814632  0.71334149     0.82800
N1622       N  0.98767330  0.60361454  0.73186680    -0.79700
N1623       N  0.07577638  0.43578032  0.62982240    -0.36500
N1624       N  0.12754151  0.38903251  0.60146964    -0.57100
N1625       N  0.09368695  0.32589334  0.61979235    -0.36500
N1626       N  0.04467980  0.37387981  0.65175672    -0.57100
C1627       C  0.09734971  0.46067431  0.62285638     0.27100
C1628       C  0.05262677  0.45138385  0.64880522     0.27100
C1629       C  0.12166478  0.31120261  0.60817289     0.27100
C1630       C  0.08094634  0.30482157  0.64385048     0.27100
C1631       C  0.13877568  0.42161400  0.59423179     0.35700
C1632       C  0.14649744  0.36515848  0.58465466     0.35700
C1633       C  0.02057746  0.39766534  0.65539293     0.35700
C1634       C  0.03191988  0.34135257  0.65166775     0.35700
C1635       C  0.08748113  0.49306905  0.63656958    -0.21800
C1636       C  0.05918176  0.48718300  0.65304234    -0.21800
C1637       C  0.12632241  0.27928028  0.62433405    -0.21800
C1638       C  0.10121587  0.27564056  0.64720313    -0.21800
C1639       C  0.16571348  0.41820363  0.57439177    -0.22900
C1640       C  0.17015828  0.38311658  0.56779689    -0.22900
C1641       C  0.99159228  0.38020786  0.65702959    -0.22900
C1642       C  0.99865258  0.34464240  0.65357989    -0.22900
C1643       C  0.12544034  0.45506081  0.60408080    -0.18200
C1644       C  0.02613582  0.43383386  0.66273974    -0.18200
C1645       C  0.05071930  0.31142544  0.66091208    -0.18200
C1646       C  0.14379029  0.32746234  0.58528142    -0.18200
H1647       H  0.09963547  0.51821589  0.63525180     0.14700
H1648       H  0.04514977  0.50695594  0.66668583     0.14700
H1649       H  0.14647320  0.26125003  0.62114047     0.14700
H1650       H  0.09802161  0.25357278  0.66375305     0.14700
H1651       H  0.18049369  0.43891448  0.56461029     0.13000
H1652       H  0.18897193  0.37311985  0.55174284     0.13000
H1653       H  0.96792642  0.39127946  0.66110438     0.13000
H1654       H  0.98124758  0.32360619  0.65465176     0.13000
H1655       H  0.07716844  0.40968652  0.62170229     0.26200
H1656       H  0.08342555  0.34919514  0.61114666     0.26200
N1657       N  0.91774242  0.55466266  0.55303359    -0.36500
N1658       N  0.85567054  0.54301569  0.62307226    -0.57100
N1659       N  0.80400564  0.57782064  0.59378240    -0.36500
N1660       N  0.84614265  0.58633125  0.53119710    -0.57100
C1661       C  0.91111780  0.52724087  0.57270881     0.27100
C1662       C  0.90359407  0.54745466  0.52295723     0.27100
C1663       C  0.79358323  0.57246673  0.62615313     0.27100
C1664       C  0.79677011  0.61142862  0.58401932     0.27100
C1665       C  0.88120093  0.52104796  0.62212221     0.35700
C1666       C  0.83155513  0.52505038  0.63666236     0.35700
C1667       C  0.86233402  0.58378290  0.50166153     0.35700
C1668       C  0.82068203  0.60760060  0.52537300     0.35700
C1669       C  0.89565650  0.50079578  0.55395329    -0.21800
C1670       C  0.89011304  0.51413514  0.52239050    -0.21800
C1671       C  0.77808145  0.60328889  0.63691740    -0.21800
C1672       C  0.78046557  0.62781918  0.61075256    -0.21800
C1673       C  0.87346311  0.48809500  0.63360990    -0.22900
C1674       C  0.84203965  0.49121004  0.64393809    -0.22900
C1675       C  0.84716500  0.60280845  0.47678181    -0.22900
C1676       C  0.82039858  0.61736498  0.49146030    -0.22900
C1677       C  0.91010574  0.53096796  0.60782496    -0.18200
C1678       C  0.89485208  0.57431839  0.50118127    -0.18200
C1679       C  0.80443216  0.62655073  0.55144193    -0.18200
C1680       C  0.80200354  0.54126242  0.64564287    -0.18200
H1681       H  0.88630964  0.47631022  0.56330559     0.14700
H1682       H  0.87527923  0.50240437  0.50251277     0.14700
H1683       H  0.76785699  0.60838396  0.66157924     0.14700
H1684       H  0.77142853  0.65478766  0.61151391     0.14700
H1685       H  0.88886445  0.46490162  0.63498258     0.13000
H1686       H  0.82830815  0.47127160  0.65540474     0.13000
H1687       H  0.85601465  0.60813075  0.45180631     0.13000
H1688       H  0.80439693  0.63596136  0.47924573     0.13000
H1689       H  0.92613059  0.57946067  0.56125911     0.26200
H1690       H  0.81617758  0.55908774  0.57896795     0.26200
N1691       N  0.07919581  0.82989792  0.71304644    -0.36500
N1692       N  0.07200402  0.87287049  0.65052628    -0.57100
N1693       N  0.10851839  0.93114476  0.68189672    -0.36500
N1694       N  0.11761319  0.88776555  0.74149250    -0.57100
C1695       C  0.07013764  0.80470103  0.69026409     0.27100
C1696       C  0.09559099  0.81312932  0.73784436     0.27100
C1697       C  0.09991844  0.94659156  0.65200652     0.27100
C1698       C  0.13243631  0.94982950  0.69841383     0.27100
C1699       C  0.05281488  0.84460374  0.64383710     0.35700
C1700       C  0.06162173  0.89913714  0.63005689     0.35700
C1701       C  0.11460762  0.86661517  0.76812528     0.35700
C1702       C  0.13036036  0.91824739  0.75315208     0.35700
C1703       C  0.07855493  0.77145331  0.70202044    -0.21800
C1704       C  0.09503552  0.77684944  0.73192678    -0.21800
C1705       C  0.11899989  0.97646933  0.64949967    -0.21800
C1706       C  0.13973731  0.97801650  0.67796372    -0.21800
C1707       C  0.03060164  0.85253073  0.61887051    -0.22900
C1708       C  0.03533652  0.88699972  0.61103308    -0.22900
C1709       C  0.12537164  0.88380515  0.79733908    -0.22900
C1710       C  0.13498659  0.91676121  0.78796845    -0.22900
C1711       C  0.05580256  0.81092516  0.65844256    -0.18200
C1712       C  0.11364275  0.82979493  0.76391769    -0.18200
C1713       C  0.14586202  0.94216783  0.73206699    -0.18200
C1714       C  0.07555915  0.93360115  0.62747507    -0.18200
H1715       H  0.07458091  0.74599997  0.68961474     0.14700
H1716       H  0.10632028  0.75654767  0.74703326     0.14700
H1717       H  0.11858130  0.99489169  0.62893900     0.14700
H1718       H  0.15738190  0.99829298  0.68343065     0.14700
H1719       H  0.01187548  0.83588587  0.60822834     0.13000
H1720       H  0.02003067  0.90119552  0.59372687     0.13000
H1721       H  0.12863913  0.87264187  0.82212121     0.13000
H1722       H  0.14687250  0.93610133  0.80428600     0.13000
H1723       H  0.07551828  0.85700852  0.71084902     0.26200
H1724       H  0.09817190  0.90859066  0.69083272     0.26200
N1725       N  0.16012974  0.59317059  0.86843689    -0.36500
N1726       N  0.22580298  0.59744401  0.93417317    -0.57100
N1727       N  0.13661241  0.59937360  0.96933552    -0.36500
N1728       N  0.10170186  0.58867086  0.90736899    -0.57100
C1729       C  0.18985688  0.59678173  0.85561501     0.27100
C1730       C  0.13868226  0.60331664  0.84454039     0.27100
C1731       C  0.16165165  0.60002156  0.99196617     0.27100
C1732       C  0.11323225  0.57669836  0.97988832     0.27100
C1733       C  0.21924822  0.57813234  0.90620204     0.35700
C1734       C  0.20805416  0.58464387  0.95890045     0.35700
C1735       C  0.08788901  0.59661497  0.87755235     0.35700
C1736       C  0.07801371  0.58131833  0.92901158     0.35700
C1737       C  0.18742177  0.60981199  0.82323207    -0.21800
C1738       C  0.15509935  0.61353272  0.81606929    -0.21800
C1739       C  0.15403347  0.57758993  0.01788880    -0.21800
C1740       C  0.12360895  0.56374535  0.01088455    -0.21800
C1741       C  0.20131721  0.54896732  0.91431579    -0.22900
C1742       C  0.19468503  0.55256665  0.94816236    -0.22900
C1743       C  0.05470863  0.59444917  0.88027510    -0.22900
C1744       C  0.04848410  0.58499521  0.91277765    -0.22900
C1745       C  0.21850509  0.59521131  0.87506321    -0.18200
C1746       C  0.10474258  0.60381374  0.84751772    -0.18200
C1747       C  0.08383164  0.56685266  0.96124860    -0.18200
C1748       C  0.19403537  0.60850126  0.98253878    -0.18200
H1749       H  0.20689936  0.61711668  0.80701408     0.14700
H1750       H  0.14483621  0.62366186  0.79289778     0.14700
H1751       H  0.16980036  0.56989195  0.03847354     0.14700
H1752       H  0.11148578  0.54509408  0.02650999     0.14700
H1753       H  0.18874562  0.53158943  0.89691332     0.13000
H1754       H  0.17694256  0.53725497  0.96105719     0.13000
H1755       H  0.03655374  0.59848095  0.86093233     0.13000
H1756       H  0.02472219  0.58190627  0.92287680     0.13000
H1757       H  0.15522488  0.58571925  0.89285437     0.26200
H1758       H  0.13746737  0.61272513  0.94667051     0.26200
C1759       C  0.72305049  0.21855896  0.26886840     0.80300
N1760       N  0.71956695  0.25291183  0.25964687    -0.78000
C1761       C  0.74569484  0.27255500  0.25291586     0.82700
N1762       N  0.77530580  0.25744975  0.25414132    -0.78000
C1763       C  0.77892540  0.22316453  0.26255354     0.82800
N1764       N  0.75289562  0.20384441  0.27079914    -0.79700
N1765       N  0.62209107  0.30916816  0.34816870    -0.36500
N1766       N  0.58191937  0.37249697  0.37287956    -0.57100
N1767       N  0.53016082  0.32580482  0.38168098    -0.36500
N1768       N  0.57186094  0.26617055  0.35429731    -0.57100
C1769       C  0.63636869  0.33718353  0.33496117     0.27100
C1770       C  0.63233388  0.28011307  0.33072006     0.27100
C1771       C  0.51651264  0.35808278  0.39022747     0.27100
C1772       C  0.50982621  0.30590395  0.36114542     0.27100
C1773       C  0.61275321  0.38394817  0.37229294     0.35700
C1774       C  0.56664164  0.39216084  0.39731490     0.35700
C1775       C  0.59359373  0.23984863  0.35297364     0.35700
C1776       C  0.54369790  0.25247039  0.36167671     0.35700
C1777       C  0.65641976  0.32630184  0.30899523    -0.21800
C1778       C  0.65378472  0.29009396  0.30622578    -0.21800
C1779       C  0.48590093  0.35824503  0.37563017    -0.21800
C1780       C  0.48207901  0.32619784  0.35681207    -0.21800
C1781       C  0.61697378  0.41118575  0.39579703    -0.22900
C1782       C  0.58820435  0.41649398  0.41138973    -0.22900
C1783       C  0.57954348  0.20801222  0.36030689    -0.22900
C1784       C  0.54756488  0.21607267  0.36585847    -0.22900
C1785       C  0.63779847  0.36988420  0.35166241    -0.18200
C1786       C  0.62312245  0.24511613  0.33786181    -0.18200
C1787       C  0.51637256  0.26937867  0.34893201    -0.18200
C1788       C  0.53359797  0.38807155  0.40663797    -0.18200
H1789       H  0.67250715  0.34259479  0.29486224     0.14700
H1790       H  0.66668594  0.27336621  0.28861107     0.14700
H1791       H  0.46883768  0.38002807  0.37654068     0.14700
H1792       H  0.46097654  0.31853124  0.34224880     0.14700
H1793       H  0.63881656  0.42552420  0.40171119     0.13000
H1794       H  0.58495512  0.43558107  0.43171896     0.13000
H1795       H  0.59033737  0.18182871  0.35885766     0.13000
H1796       H  0.52874852  0.19702068  0.36929166     0.13000
H1797       H  0.60865888  0.30999434  0.37024681     0.26200
H1798       H  0.55297149  0.31781156  0.38979137     0.26200
C1799       C  0.76178193  0.46454678  0.46027115     0.80300
N1800       N  0.74716556  0.49712126  0.46183729    -0.78000
C1801       C  0.72370219  0.50561892  0.43880232     0.82700
N1802       N  0.71553155  0.48131541  0.41446437    -0.78000
C1803       C  0.73079030  0.44977497  0.41205785     0.82800
N1804       N  0.75340137  0.44149652  0.43510146    -0.79700
C1805       C  0.94555612  0.42332961  0.28945698     0.80300
N1806       N  0.97654192  0.43268305  0.29502787    -0.78000
C1807       C  0.98575347  0.44365395  0.32640040     0.82700
N1808       N  0.96392629  0.44791152  0.35106409    -0.78000
C1809       C  0.93266004  0.44057562  0.34526807     0.82800
N1810       N  0.92418175  0.42646921  0.31475442    -0.79700
C1811       C  0.02968572  0.24354590  0.44722574     0.80300
N1812       N  0.04808095  0.27303709  0.44896195    -0.78000
C1813       C  0.04923245  0.29292152  0.47805401     0.82700
N1814       N  0.03113008  0.28331798  0.50437706    -0.78000
C1815       C  0.01210160  0.25464075  0.50241599     0.82800
N1816       N  0.01122663  0.23493760  0.47362499    -0.79700
N1817       N  0.11919066  0.46493733  0.44864952    -0.36500
N1818       N  0.15552850  0.45642974  0.38504560    -0.57100
N1819       N  0.19996481  0.40288175  0.41182963    -0.36500
N1820       N  0.16148807  0.38661296  0.49251565    -0.57100
C1821       C  0.09642417  0.47615482  0.42697529     0.27100
C1822       C  0.10398554  0.45379973  0.47630643     0.27100
C1823       C  0.21416339  0.40847955  0.38131110     0.27100
C1824       C  0.21349675  0.37414588  0.42775422     0.27100
C1825       C  0.13102629  0.47845938  0.37647776     0.35700
C1826       C  0.17624789  0.45637700  0.35911262     0.35700
C1827       C  0.14962246  0.41950305  0.49761629     0.35700
C1828       C  0.19170187  0.39017567  0.48254963     0.35700
C1829       C  0.06662908  0.47586413  0.44227404    -0.21800
C1830       C  0.07144292  0.46165552  0.47360356    -0.21800
C1831       C  0.23756888  0.38202778  0.37767858    -0.21800
C1832       C  0.23653919  0.36008019  0.40614237    -0.21800
C1833       C  0.13550188  0.49200648  0.34502684    -0.22900
C1834       C  0.16391801  0.47857390  0.33412859    -0.22900
C1835       C  0.17375494  0.44422110  0.49453928    -0.22900
C1836       C  0.20055607  0.42553018  0.48419676    -0.22900
C1837       C  0.10118951  0.48005581  0.39219736    -0.18200
C1838       C  0.11629719  0.42558462  0.49506537    -0.18200
C1839       C  0.20532454  0.36371961  0.46216558    -0.18200
C1840       C  0.20541058  0.43610460  0.35688871    -0.18200
H1841       H  0.04347517  0.48166045  0.43079355     0.14700
H1842       H  0.05266279  0.45349974  0.49032112     0.14700
H1843       H  0.25332317  0.37831702  0.35632464     0.14700
H1844       H  0.25198508  0.33748225  0.41090353     0.14700
H1845       H  0.11911931  0.50860073  0.33077720     0.13000
H1846       H  0.17243457  0.48375672  0.30932942     0.13000
H1847       H  0.17113609  0.47258772  0.49481995     0.13000
H1848       H  0.22255486  0.43679740  0.47507168     0.13000
H1849       H  0.14286934  0.45947526  0.44251405     0.26200
H1850       H  0.18156547  0.41815661  0.42214682     0.26200
N1851       N  0.87279487  0.35508219  0.58041123    -0.36500
N1852       N  0.89088205  0.31361159  0.63651093    -0.57100
N1853       N  0.85359926  0.35629306  0.68363693    -0.36500
N1854       N  0.83603617  0.39967670  0.62622265    -0.57100
C1855       C  0.89880962  0.33803635  0.56825729     0.27100
C1856       C  0.86864043  0.38454618  0.56242621     0.27100
C1857       C  0.87602669  0.34177938  0.70432885     0.27100
C1858       C  0.84237351  0.38641986  0.69861666     0.27100
C1859       C  0.90059128  0.29214512  0.61094001     0.35700
C1860       C  0.89310613  0.29435509  0.66454322     0.35700
C1861       C  0.82407847  0.40827979  0.59555092     0.35700
C1862       C  0.81221672  0.40601975  0.64848946     0.35700
C1863       C  0.91157738  0.35694555  0.54197634    -0.21800
C1864       C  0.89212866  0.38649113  0.53808701    -0.21800
C1865       C  0.87890474  0.36249618  0.73346607    -0.21800
C1866       C  0.85751109  0.39064061  0.73004474    -0.21800
C1867       C  0.90840575  0.25886109  0.62247375    -0.22900
C1868       C  0.90427868  0.26049332  0.65652980    -0.22900
C1869       C  0.79292364  0.42045705  0.59807966    -0.22900
C1870       C  0.78501526  0.41816791  0.63128780    -0.22900
C1871       C  0.90930639  0.30478058  0.57945132    -0.18200
C1872       C  0.84151191  0.40639402  0.56543167    -0.18200
C1873       C  0.81799713  0.40821171  0.68392672    -0.18200
C1874       C  0.89259695  0.30963830  0.69718392    -0.18200
H1875       H  0.93213714  0.34975955  0.52673282     0.14700
H1876       H  0.89441465  0.40654084  0.51915922     0.14700
H1877       H  0.89459158  0.35774981  0.75496107     0.14700
H1878       H  0.85398762  0.41142261  0.74884771     0.14700
H1879       H  0.91912604  0.23696114  0.60845121     0.13000
H1880       H  0.91168402  0.24012639  0.67351202     0.13000
H1881       H  0.77730396  0.42927760  0.57789017     0.13000
H1882       H  0.76141866  0.42427853  0.64076842     0.13000
H1883       H  0.85698161  0.34568578  0.59824458     0.26200
H1884       H  0.84532579  0.34549886  0.66070115     0.26200
N1885       N  0.82691330  0.41086577  0.15768610    -0.36500
N1886       N  0.87834896  0.42465353  0.10998715    -0.57100
N1887       N  0.85426937  0.36407407  0.06643668    -0.36500
N1888       N  0.79985689  0.35681156  0.11570919    -0.57100
C1889       C  0.84070094  0.44009078  0.17066135     0.27100
C1890       C  0.79848775  0.40679327  0.17304661     0.27100
C1891       C  0.87275943  0.38299884  0.04498422     0.27100
C1892       C  0.83125735  0.34520046  0.04884222     0.27100
C1893       C  0.89155049  0.43437180  0.14012205     0.35700
C1894       C  0.90305023  0.41292283  0.09081363     0.35700
C1895       C  0.79058439  0.34886462  0.14706698     0.35700
C1896       C  0.80512674  0.32559919  0.09984180     0.35700
C1897       C  0.82051370  0.45579283  0.19440254    -0.21800
C1898       C  0.79331481  0.43495772  0.19545148    -0.21800
C1899       C  0.86154353  0.37536719  0.01234910    -0.21800
C1900       C  0.83560457  0.35168337  0.01476470    -0.21800
C1901       C  0.92465359  0.42968713  0.13971019    -0.22900
C1902       C  0.93187532  0.41574662  0.10862268    -0.22900
C1903       C  0.78992333  0.31249604  0.15115894    -0.22900
C1904       C  0.79887817  0.29764798  0.12084427    -0.22900
C1905       C  0.87394203  0.44483878  0.16891532    -0.18200
C1906       C  0.78145733  0.37470771  0.17119700    -0.18200
C1907       C  0.80762140  0.32289860  0.06487342    -0.18200
C1908       C  0.89981245  0.40504312  0.05604953    -0.18200
H1909       H  0.82610156  0.47798520  0.21119878     0.14700
H1910       H  0.77365113  0.43824293  0.21291248     0.14700
H1911       H  0.87104351  0.38554274  0.98920549     0.14700
H1912       H  0.82159140  0.34073654  0.99386135     0.14700
H1913       H  0.94178112  0.43443452  0.16008921     0.13000
H1914       H  0.95562574  0.40754756  0.10066122     0.13000
H1915       H  0.78344291  0.29821580  0.17343700     0.13000
H1916       H  0.79957064  0.26964258  0.11439774     0.13000
H1917       H  0.83902952  0.39192704  0.14308852     0.26200
H1918       H  0.85770113  0.36343452  0.09256497     0.26200
N1919       N  0.82567423  0.59995095  0.37063944    -0.36500
N1920       N  0.80643790  0.66457814  0.39195118    -0.57100
N1921       N  0.86535440  0.70153311  0.37447469    -0.36500
N1922       N  0.88623627  0.63405732  0.35151065    -0.57100
C1923       C  0.79970393  0.59239201  0.38901013     0.27100
C1924       C  0.84739429  0.57452476  0.37665730     0.27100
C1925       C  0.85870679  0.71428173  0.40638180     0.27100
C1926       C  0.89674573  0.70652096  0.36717956     0.27100
C1927       C  0.77708974  0.65080618  0.39043918     0.35700
C1928       C  0.80325892  0.69878645  0.39993155     0.35700
C1929       C  0.89158320  0.59947852  0.34370590     0.35700
C1930       C  0.90652535  0.65308756  0.33267431     0.35700
C1931       C  0.80434881  0.56109792  0.40599798    -0.21800
C1932       C  0.83483214  0.54984251  0.39839252    -0.21800
C1933       C  0.88697715  0.72844472  0.41971507    -0.21800
C1934       C  0.91072763  0.72426374  0.39478245    -0.21800
C1935       C  0.75460051  0.67661483  0.39665068    -0.22900
C1936       C  0.77085905  0.70790426  0.40098322    -0.22900
C1937       C  0.91557003  0.59606664  0.32001207    -0.22900
C1938       C  0.92477161  0.62996844  0.31258739    -0.22900
C1939       C  0.77267469  0.61445327  0.39144580    -0.18200
C1940       C  0.87669320  0.57126496  0.36004064    -0.18200
C1941       C  0.91232148  0.68997975  0.33824042    -0.18200
C1942       C  0.82700864  0.71266308  0.42127135    -0.18200
H1943       H  0.78802861  0.54833421  0.42282966     0.14700
H1944       H  0.84631487  0.52605439  0.40763021     0.14700
H1945       H  0.89026271  0.74054817  0.44455422     0.14700
H1946       H  0.93577876  0.73123117  0.39774287     0.14700
H1947       H  0.73047395  0.67188627  0.40309509     0.13000
H1948       H  0.76062832  0.73243226  0.41089659     0.13000
H1949       H  0.92575233  0.57171243  0.30968468     0.13000
H1950       H  0.94428684  0.63627779  0.29606546     0.13000
H1951       H  0.82794699  0.62059697  0.35376216     0.26200
H1952       H  0.84930854  0.68905999  0.35768391     0.26200
N1953       N  0.92670580  0.12832264  0.32868223    -0.36500
N1954       N  0.94819264  0.08783117  0.38679544    -0.57100
N1955       N  0.89362608  0.03874494  0.37682835    -0.36500
N1956       N  0.87642127  0.07871633  0.31386874    -0.57100
C1957       C  0.95607381  0.14191957  0.33389827     0.27100
C1958       C  0.91597949  0.13943408  0.29853082     0.27100
C1959       C  0.91283256  0.02160462  0.39979833     0.27100
C1960       C  0.87493709  0.01496061  0.35883351     0.27100
C1961       C  0.96181204  0.12001133  0.39172006     0.35700
C1962       C  0.94368898  0.07466528  0.41794063     0.35700
C1963       C  0.86463909  0.10893344  0.30059900     0.35700
C1964       C  0.85048054  0.05982021  0.32208254     0.35700
C1965       C  0.96494209  0.16097199  0.30594193    -0.21800
C1966       C  0.93905430  0.15992124  0.28364858    -0.21800
C1967       C  0.90559509  0.98574614  0.39682089    -0.21800
C1968       C  0.88192906  0.98161527  0.37125104    -0.21800
C1969       C  0.96602838  0.12723885  0.42582414    -0.22900
C1970       C  0.95450418  0.09873192  0.44247906    -0.22900
C1971       C  0.83128883  0.10899564  0.30031932    -0.22900
C1972       C  0.82233266  0.07774313  0.31380720    -0.22900
C1973       C  0.97118668  0.14280656  0.36578159    -0.18200
C1974       C  0.88385384  0.13620026  0.28826979    -0.18200
C1975       C  0.85185576  0.02454783  0.33236768    -0.18200
C1976       C  0.93528976  0.03902626  0.42349333    -0.18200
H1977       H  0.98653663  0.17636412  0.30325261     0.14700
H1978       H  0.93674291  0.17400590  0.26020369     0.14700
H1979       H  0.91606330  0.96469507  0.41158285     0.14700
H1980       H  0.87118035  0.95690065  0.36286211     0.14700
H1981       H  0.97594482  0.15101375  0.43731591     0.13000
H1982       H  0.95378910  0.09663476  0.46961858     0.13000
H1983       H  0.81497293  0.12932774  0.29147493     0.13000
H1984       H  0.79789407  0.06888973  0.31695071     0.13000
H1985       H  0.91282855  0.11618923  0.34669577     0.26200
H1986       H  0.89269220  0.06609680  0.37410734     0.26200
O1987       O  0.90569243  0.26457648  0.73530806    -0.80800
O1988       O  0.03058011  0.19574915  0.79373290    -0.65500
O1989       O  0.95950025  0.25506421  0.76845085    -1.12100
C1990       C  0.03947207  0.29273388  0.69278145     1.06100
O1991       O  0.06482545  0.21333152  0.75298243    -0.78700
O1992       O  0.04301615  0.30961225  0.77408116    -0.66300
Ni1993     Ni  0.92855859  0.22463610  0.75459015     1.34900
C1994       C  0.01709205  0.32673395  0.77998828     0.84800
O1995       O  0.96070353  0.20596923  0.81665585    -0.79200
O1996       O  0.91321737  0.23083207  0.79877558    -0.89500
C1997       C  0.05843072  0.19423150  0.77844320     0.84400
O1998       O  0.94956148  0.21199880  0.71383753    -0.67700
O1999       O  0.05970342  0.27643706  0.71240240    -0.87000
C2000       C  0.96778356  0.18556758  0.72029305     0.85200
C2001       C  0.92989984  0.21432412  0.82113253     1.06800
H2002       H  0.01640317  0.23033495  0.72827811     0.38600
O2003       O  0.01412763  0.24624640  0.74758797    -1.09700
O2004       O  0.99045493  0.31591670  0.76762844    -0.66300
Ni2005     Ni  0.98204440  0.27709225  0.73466608     1.26300
O2006       O  0.98147242  0.18444084  0.74952053    -0.66600
O2007       O  0.00952851  0.29704075  0.70076386    -0.78800
C2008       C  0.91523884  0.29289442  0.72100773     0.84600
O2009       O  0.94468833  0.30296426  0.72011718    -0.66000
Ni2010     Ni  0.05399071  0.26211550  0.75992046     1.27400
Ni2011     Ni  0.99167469  0.22395770  0.78193822     1.26100
H2012       H  0.95343023  0.27157009  0.78632731     0.39100
C2013       C  0.01051054  0.28455270  0.99768126     0.80300
N2014       N  0.99123102  0.25581438  0.99714338    -0.78000
C2015       C  0.97457624  0.24716732  0.02470596     0.82700
N2016       N  0.97696355  0.26755238  0.05311780    -0.78000
C2017       C  0.99649460  0.29601571  0.05439635     0.82800
N2018       N  0.01365493  0.30432292  0.02665184    -0.79700
N2019       N  0.05192822  0.38466972  0.21916475    -0.36500
N2020       N  0.02433940  0.41912680  0.13374709    -0.57100
N2021       N  0.10263184  0.45545735  0.15248984    -0.36500
N2022       N  0.13607947  0.40692651  0.22277034    -0.57100
C2023       C  0.02613483  0.36752388  0.20651968     0.27100
C2024       C  0.06783254  0.36300523  0.24037300     0.27100
C2025       C  0.09209604  0.46581336  0.12158406     0.27100
C2026       C  0.13450360  0.46217486  0.15656048     0.27100
C2027       C  0.01358164  0.41323725  0.16517357     0.35700
C2028       C  0.03638078  0.45200715  0.13418985     0.35700
C2029       C  0.11281121  0.40279146  0.24563718     0.35700
C2030       C  0.13415735  0.44097035  0.21381451     0.35700
C2031       C  0.02480678  0.33426931  0.22069988    -0.21800
C2032       C  0.05122054  0.33146066  0.24233057    -0.21800
C2033       C  0.11851562  0.47886693  0.10473829    -0.21800
C2034       C  0.14518696  0.47679822  0.12690619    -0.21800
C2035       C  0.01644534  0.44376071  0.18513859    -0.22900
C2036       C  0.03169357  0.46819357  0.16559823    -0.22900
C2037       C  0.09744212  0.43489018  0.25273583    -0.22900
C2038       C  0.11083857  0.45926388  0.23185809    -0.22900
C2039       C  0.01006520  0.37830876  0.17675942    -0.18200
C2040       C  0.09998660  0.36919600  0.25089849    -0.18200
C2041       C  0.15193513  0.45403167  0.18712890    -0.18200
C2042       C  0.05913069  0.46182710  0.11014911    -0.18200
H2043       H  0.00824407  0.31326704  0.21390834     0.14700
H2044       H  0.05887432  0.30794040  0.25546549     0.14700
H2045       H  0.11874722  0.48926010  0.07950062     0.14700
H2046       H  0.16940128  0.48506283  0.12166512     0.14700
H2047       H  0.01173560  0.44651567  0.21192960     0.13000
H2048       H  0.04102884  0.49350888  0.17430718     0.13000
H2049       H  0.07655411  0.43914582  0.26839500     0.13000
H2050       H  0.10342568  0.48659081  0.22897276     0.13000
H2051       H  0.06089541  0.40795395  0.20971069     0.26200
H2052       H  0.08853294  0.44324558  0.17027352     0.26200
C2053       C  0.04990472  0.06252580  0.23264462     0.80300
N2054       N  0.02676670  0.06428843  0.20853034    -0.78000
C2055       C  0.02490052  0.03832810  0.18426372     0.82700
N2056       N  0.04541301  0.01010004  0.18534277    -0.78000
C2057       C  0.06826311  0.00822145  0.21005735     0.82800
N2058       N  0.07041406  0.03471260  0.23307545    -0.79700
C2059       C  0.23156595  0.22016072  0.27201326     0.80300
N2060       N  0.24122249  0.20467674  0.24266613    -0.78000
C2061       C  0.22946862  0.21581074  0.21256153     0.82700
N2062       N  0.20816574  0.24340555  0.21190146    -0.78000
C2063       C  0.19796251  0.25901609  0.24127818     0.82800
N2064       N  0.20965949  0.24686939  0.27103537    -0.79700
N2065       N  0.13849108  0.12867390  0.38121508    -0.36500
N2066       N  0.17651558  0.13659643  0.43640216    -0.57100
N2067       N  0.13083124  0.09897435  0.47887454    -0.36500
N2068       N  0.09179557  0.08920163  0.41896287    -0.57100
C2069       C  0.15983846  0.15292703  0.37176927     0.27100
C2070       C  0.11075836  0.13560597  0.36517187     0.27100
C2071       C  0.14210335  0.12644033  0.49937621     0.27100
C2072       C  0.10247545  0.08580298  0.49046258     0.27100
C2073       C  0.19970381  0.13880318  0.41351153     0.35700
C2074       C  0.19027785  0.13236474  0.46644473     0.35700
C2075       C  0.08146915  0.08503219  0.38649712     0.35700
C2076       C  0.08101409  0.06128050  0.43620714     0.35700
C2077       C  0.14546019  0.17646689  0.34977158    -0.21800
C2078       C  0.11395195  0.16567270  0.34588103    -0.21800
C2079       C  0.12001813  0.13056950  0.52530698    -0.21800
C2080       C  0.09583426  0.10467329  0.52026342    -0.21800
C2081       C  0.22956039  0.13519784  0.42852680    -0.22900
C2082       C  0.22359829  0.13110501  0.46246065    -0.22900
C2083       C  0.06402853  0.05424273  0.38275432    -0.22900
C2084       C  0.06357866  0.03925160  0.41405928    -0.22900
C2085       C  0.19230208  0.15125284  0.38159650    -0.18200
C2086       C  0.08719159  0.10966132  0.36085329    -0.18200
C2087       C  0.08284970  0.05898845  0.47216389    -0.18200
C2088       C  0.17289418  0.14483968  0.49442931    -0.18200
H2089       H  0.15665351  0.19814858  0.33708680     0.14700
H2090       H  0.09627859  0.17661181  0.32862228     0.14700
H2091       H  0.12148122  0.14953258  0.54617473     0.14700
H2092       H  0.07511351  0.10128404  0.53604965     0.14700
H2093       H  0.25277310  0.13846671  0.41702282     0.13000
H2094       H  0.24182732  0.13188626  0.48199825     0.13000
H2095       H  0.05260975  0.04362983  0.36003761     0.13000
H2096       H  0.05095645  0.01524316  0.41932184     0.13000
H2097       H  0.14390417  0.10570393  0.39443433     0.26200
H2098       H  0.14215014  0.08878348  0.45735174     0.26200
C2099       C  0.24996855  0.98796623  0.03359245     0.80300
N2100       N  0.22101292  0.00328292  0.02740192    -0.78000
C2101       C  0.21662682  0.02348513  0.00027055     0.82700
N2102       N  0.24119913  0.02885153  0.97917188    -0.78000
C2103       C  0.27056441  0.01425100  0.98484664     0.82800
N2104       N  0.27500369  0.99390994  0.01267278    -0.79700
N2105       N  0.33818582  0.14493551  0.06070644    -0.36500
N2106       N  0.39863154  0.11637621  0.03880573    -0.57100
N2107       N  0.43273530  0.13347961  0.10241994    -0.36500
N2108       N  0.37086717  0.15940931  0.12642090    -0.57100
C2109       C  0.32979556  0.12247672  0.03516721     0.27100
C2110       C  0.31369297  0.14599181  0.08259500     0.27100
C2111       C  0.45140556  0.10690819  0.08833322     0.27100
C2112       C  0.43873374  0.13727529  0.13647716     0.27100
C2113       C  0.38225777  0.12078562  0.00969999     0.35700
C2114       C  0.42981060  0.11509337  0.03090773     0.35700
C2115       C  0.34259036  0.17758891  0.12819494     0.35700
C2116       C  0.39106647  0.17561669  0.14892095     0.35700
C2117       C  0.29934825  0.10939912  0.04076464    -0.21800
C2118       C  0.28884266  0.12488494  0.07062203    -0.21800
C2119       C  0.47032884  0.09350679  0.11438804    -0.21800
C2120       C  0.46282352  0.11287482  0.14431030    -0.21800
C2121       C  0.40272099  0.12241870  0.98270844    -0.22900
C2122       C  0.43312850  0.11972141  0.99622820    -0.22900
C2123       C  0.34472347  0.20518817  0.15149849    -0.22900
C2124       C  0.37537305  0.20437206  0.16398837    -0.22900
C2125       C  0.34962950  0.11385623  0.00746999    -0.18200
C2126       C  0.31371967  0.16666447  0.11237721    -0.18200
C2127       C  0.42197223  0.16248500  0.15904998    -0.18200
C2128       C  0.45180093  0.09758759  0.05211583    -0.18200
H2129       H  0.28643387  0.09017314  0.02536139     0.14700
H2130       H  0.26606487  0.12036996  0.08260905     0.14700
H2131       H  0.48820159  0.07262622  0.11205186     0.14700
H2132       H  0.47347319  0.10887661  0.16904317     0.14700
H2133       H  0.39628665  0.12346920  0.95613705     0.13000
H2134       H  0.45491765  0.11891788  0.98166759     0.13000
H2135       H  0.32614082  0.22386132  0.15900494     0.13000
H2136       H  0.38468797  0.22264436  0.18283078     0.13000
H2137       H  0.35931020  0.15955208  0.06287787     0.26200
H2138       H  0.41687547  0.14954537  0.08900683     0.26200
N2139       N  0.12614548  0.17167417  0.91499675    -0.36500
N2140       N  0.15154621  0.11130231  0.87155473    -0.57100
N2141       N  0.13209024  0.14374138  0.81168491    -0.36500
N2142       N  0.10128012  0.19855287  0.85626210    -0.57100
C2143       C  0.12496310  0.14446187  0.93611761     0.27100
C2144       C  0.10606806  0.19702917  0.92716258     0.27100
C2145       C  0.14573696  0.11390303  0.79851287     0.27100
C2146       C  0.10654413  0.15296105  0.79214888     0.27100
C2147       C  0.16105174  0.10414385  0.90342494     0.35700
C2148       C  0.17349683  0.09587860  0.85072892     0.35700
C2149       C  0.10083882  0.22875292  0.87514820     0.35700
C2150       C  0.09454199  0.20785526  0.82456424     0.35700
C2151       C  0.10475961  0.15282359  0.96282359    -0.21800
C2152       C  0.09276370  0.18633610  0.95716443    -0.21800
C2153       C  0.12971059  0.10480460  0.76863649    -0.21800
C2154       C  0.10439091  0.12909085  0.76500767    -0.21800
C2155       C  0.18891997  0.08368318  0.90295667    -0.22900
C2156       C  0.19705928  0.07889394  0.86963179    -0.22900
C2157       C  0.09418932  0.25762872  0.85541764    -0.22900
C2158       C  0.08956350  0.24417944  0.82339268    -0.22900
C2159       C  0.14356511  0.11358032  0.93279718    -0.18200
C2160       C  0.09878648  0.22856174  0.91033587    -0.18200
C2161       C  0.08669792  0.18322974  0.79876601    -0.18200
C2162       C  0.17085678  0.09457654  0.81491017    -0.18200
H2163       H  0.09919946  0.13641907  0.98402173     0.14700
H2164       H  0.07560898  0.20065680  0.97274888     0.14700
H2165       H  0.13479099  0.08228282  0.75209943     0.14700
H2166       H  0.08676849  0.12936278  0.74464654     0.14700
H2167       H  0.20208352  0.07331720  0.92438781     0.13000
H2168       H  0.21757572  0.06391375  0.86044014     0.13000
H2169       H  0.09057284  0.28489326  0.86367606     0.13000
H2170       H  0.08238632  0.25936009  0.80204045     0.13000
H2171       H  0.14065652  0.17315058  0.89380622     0.26200
H2172       H  0.14031029  0.15750671  0.83309864     0.26200
N2173       N  0.13231789  0.82236521  0.19419242    -0.36500
N2174       N  0.18382413  0.86971079  0.17305325    -0.57100
N2175       N  0.18955528  0.83228081  0.11239583    -0.36500
N2176       N  0.13677402  0.78277313  0.13004277    -0.57100
C2177       C  0.12613034  0.85285653  0.21183233     0.27100
C2178       C  0.10438615  0.80431833  0.19302445     0.27100
C2179       C  0.19954600  0.86512543  0.10455716     0.27100
C2180       C  0.17872757  0.81703949  0.08343286     0.27100
C2181       C  0.17784365  0.88188458  0.20423851     0.35700
C2182       C  0.20894152  0.88770280  0.16179661     0.35700
C2183       C  0.11686593  0.76066461  0.14679249     0.35700
C2184       C  0.15033184  0.76481238  0.10327837     0.35700
C2185       C  0.09479791  0.85361720  0.22287218    -0.21800
C2186       C  0.08110557  0.82331319  0.21093772    -0.21800
C2187       C  0.19424203  0.87087554  0.07044894    -0.21800
C2188       C  0.18152337  0.84027577  0.05704035    -0.21800
C2189       C  0.20044469  0.90703594  0.21382774    -0.22900
C2190       C  0.22096218  0.90988932  0.18703587    -0.22900
C2191       C  0.11724181  0.72802552  0.12988514    -0.22900
C2192       C  0.13857674  0.73048125  0.10281962    -0.22900
C2193       C  0.14641107  0.88219516  0.21541016    -0.18200
C2194       C  0.09884587  0.77099081  0.17676897    -0.18200
C2195       C  0.17188192  0.78087871  0.07948200    -0.18200
C2196       C  0.21505349  0.88910752  0.12721183    -0.18200
H2197       H  0.08273368  0.87453101  0.23709722     0.14700
H2198       H  0.05632957  0.81654026  0.21454834     0.14700
H2199       H  0.19964527  0.89432989  0.05644178     0.14700
H2200       H  0.17616891  0.83529156  0.03065463     0.14700
H2201       H  0.19983565  0.92433887  0.23600993     0.13000
H2202       H  0.23943629  0.92940973  0.18474111     0.13000
H2203       H  0.10390780  0.70477524  0.13653289     0.13000
H2204       H  0.14425172  0.70956589  0.08466737     0.13000
H2205       H  0.15394694  0.81457151  0.18320490     0.26200
H2206       H  0.19250857  0.81943907  0.13532989     0.26200
N2207       N  0.88566401  0.08310388  0.06916406    -0.36500
N2208       N  0.85405369  0.05025873  0.12478554    -0.57100
N2209       N  0.80156106  0.10490170  0.11992369    -0.36500
N2210       N  0.83564903  0.13444443  0.05946236    -0.57100
C2211       C  0.90479438  0.05498389  0.07454745     0.27100
C2212       C  0.89480777  0.09757834  0.04012313     0.27100
C2213       C  0.78776008  0.07851760  0.13764391     0.27100
C2214       C  0.77852334  0.12540099  0.10467580     0.27100
C2215       C  0.88541399  0.04380292  0.13157777     0.35700
C2216       C  0.83927115  0.05143415  0.15491131     0.35700
C2217       C  0.86194252  0.15084210  0.04796645     0.35700
C2218       C  0.81797810  0.16006527  0.07470471     0.35700
C2219       C  0.92562495  0.05022240  0.04773128    -0.21800
C2220       C  0.91918931  0.07729574  0.02573234    -0.21800
C2221       C  0.75460803  0.08268663  0.13407505    -0.21800
C2222       C  0.74882782  0.11212303  0.11343918    -0.21800
C2223       C  0.89049190  0.04046105  0.16606056    -0.22900
C2224       C  0.86119131  0.04530974  0.18088998    -0.22900
C2225       C  0.86041998  0.18696960  0.05509795    -0.22900
C2226       C  0.83268480  0.19272989  0.07239758    -0.22900
C2227       C  0.90947201  0.04138451  0.10685039    -0.18200
C2228       C  0.88827039  0.13312438  0.03303773    -0.18200
C2229       C  0.78589893  0.15545479  0.08392006    -0.18200
C2230       C  0.80572348  0.05309903  0.15786369    -0.18200
H2231       H  0.94550005  0.03159026  0.04610382     0.14700
H2232       H  0.93322118  0.08372998  0.00389585     0.14700
H2233       H  0.73645187  0.06655648  0.14536507     0.14700
H2234       H  0.72553691  0.12238690  0.10583220     0.14700
H2235       H  0.91295692  0.03540134  0.17924229     0.13000
H2236       H  0.85690602  0.04479009  0.20775566     0.13000
H2237       H  0.87773310  0.20703993  0.04918574     0.13000
H2238       H  0.82357682  0.21818171  0.08125851     0.13000
H2239       H  0.87155044  0.09544997  0.08749437     0.26200
H2240       H  0.82616722  0.10950694  0.11903215     0.26200
C2241       C  0.29251241  0.06331976  0.95275311    -0.20200
C2242       C  0.29834329  0.03034346  0.96788311    -0.06800
C2243       C  0.32979713  0.02300085  0.97941419     0.14100
C2244       C  0.34992944  0.05158335  0.98734315    -0.20300
C2245       C  0.33888500  0.08649560  0.98256356    -0.06800
C2246       C  0.31188967  0.09224031  0.96156334     0.14100
C2247       C  0.30100747  0.12881423  0.95196606    -0.23600
H2248       H  0.26973366  0.06850297  0.94010612     0.15400
H2249       H  0.37215960  0.04679605  0.00117910     0.15400
C2250       C  0.34123627  0.98588335  0.98603936    -0.23600
H2251       H  0.29881462  0.13012552  0.92402455     0.05600
H2252       H  0.31822927  0.14945101  0.96071404     0.08800
H2253       H  0.27722532  0.13478878  0.96328205     0.08800
H2254       H  0.32285881  0.96598811  0.97850285     0.08800
H2255       H  0.34732906  0.98307586  0.01326738     0.08800
H2256       H  0.36286360  0.98008430  0.97073278     0.05600
C2257       C  0.23449389  0.97829171  0.09176117    -0.20200
C2258       C  0.25309560  0.96687253  0.06424899    -0.06800
C2259       C  0.26574653  0.93222620  0.06341809     0.14100
C2260       C  0.25690963  0.90892283  0.08870014    -0.20300
C2261       C  0.23350679  0.91855686  0.11264763    -0.06800
C2262       C  0.22265071  0.95425664  0.11468224     0.14100
C2263       C  0.19516983  0.96665242  0.13671029    -0.23600
H2264       H  0.22539569  0.00531864  0.09245619     0.15400
H2265       H  0.26419214  0.88138061  0.08657873     0.15400
C2266       C  0.28499761  0.91849810  0.03391398    -0.23600
H2267       H  0.18576039  0.99297551  0.12914290     0.05600
H2268       H  0.20300320  0.96978763  0.16339666     0.08800
H2269       H  0.17485552  0.94807076  0.13432472     0.08800
H2270       H  0.30825286  0.93258038  0.03311364     0.08800
H2271       H  0.27142325  0.92224995  0.00989896     0.08800
H2272       H  0.28980675  0.88979653  0.03576653     0.05600
C2273       C  0.17207224  0.10606452  0.98624430    -0.20200
C2274       C  0.14952459  0.09270645  0.96301077    -0.06800
C2275       C  0.14149165  0.05662102  0.96284779     0.14100
C2276       C  0.16185877  0.03306856  0.97966040    -0.20300
C2277       C  0.18848745  0.04609990  0.99760312    -0.06800
C2278       C  0.19167680  0.08283862  0.00403587     0.14100
C2279       C  0.21754307  0.09819861  0.02667055    -0.23600
H2280       H  0.17721713  0.13419248  0.98720732     0.15400
H2281       H  0.15885756  0.00472739  0.97607815     0.15400
C2282       C  0.11268241  0.04325489  0.94344992    -0.23600
H2283       H  0.20645316  0.11571476  0.04628447     0.05600
H2284       H  0.23404215  0.11414897  0.01142928     0.08800
H2285       H  0.23151237  0.07740904  0.03988173     0.08800
H2286       H  0.11359079  0.05076268  0.91657575     0.08800
H2287       H  0.09059894  0.05500357  0.95463589     0.08800
H2288       H  0.11128832  0.01403604  0.94468200     0.05600
C2289       C  0.22244724  0.20281978  0.36307116    -0.20200
C2290       C  0.21668785  0.16644784  0.36001970    -0.06800
C2291       C  0.22767838  0.14704986  0.33163541     0.14100
C2292       C  0.23877443  0.16550979  0.30396084    -0.20300
C2293       C  0.23810850  0.20274576  0.30438277    -0.06800
C2294       C  0.23378501  0.22126803  0.33549017     0.14100
C2295       C  0.23903758  0.26054925  0.33958328    -0.23600
H2296       H  0.21520681  0.21730691  0.38574282     0.15400
H2297       H  0.24381542  0.15091381  0.28073985     0.15400
C2298       C  0.22519264  0.10725866  0.32965993    -0.23600
H2299       H  0.25608410  0.26564820  0.36094376     0.05600
H2300       H  0.21588159  0.27418153  0.34512416     0.08800
H2301       H  0.24959056  0.27202182  0.31670708     0.08800
H2302       H  0.19974084  0.09918126  0.33157474     0.08800
H2303       H  0.23924508  0.09561255  0.35079513     0.08800
H2304       H  0.23474510  0.09622747  0.30550099     0.05600
C2305       C  0.27361660  0.15182808  0.15505817    -0.20200
C2306       C  0.28323898  0.17494078  0.13006257    -0.06800
C2307       C  0.26804448  0.20840322  0.12767950     0.14100
C2308       C  0.24757907  0.22022182  0.15348784    -0.20300
C2309       C  0.24141444  0.19879811  0.18106114    -0.06800
C2310       C  0.25194087  0.16295158  0.17997695     0.14100
C2311       C  0.24120327  0.13594966  0.20482509    -0.23600
H2312       H  0.28432273  0.12556992  0.15614485     0.15400
H2313       H  0.23862110  0.24728456  0.15334941     0.15400
C2314       C  0.27505445  0.23331811  0.09987874    -0.23600
H2315       H  0.23203723  0.11222382  0.19080661     0.05600
H2316       H  0.22127239  0.14584207  0.22088284     0.08800
H2317       H  0.26183375  0.12787167  0.22107322     0.08800
H2318       H  0.25230535  0.24099420  0.08690739     0.08800
H2319       H  0.29117504  0.22126679  0.08065625     0.08800
H2320       H  0.28636572  0.25735665  0.11114101     0.05600
C2321       C  0.08521288  0.09877171  0.26565759    -0.20200
C2322       C  0.05343968  0.08884363  0.25975538    -0.06800
C2323       C  0.03115578  0.09060437  0.28628100     0.14100
C2324       C  0.04212794  0.09994015  0.31897026    -0.20300
C2325       C  0.07523747  0.10337255  0.32572940    -0.06800
C2326       C  0.09712239  0.10113041  0.29846597     0.14100
C2327       C  0.13300513  0.09587931  0.30276369    -0.23600
H2328       H  0.10218025  0.09661026  0.24505204     0.15400
H2329       H  0.02531099  0.10141411  0.33958152     0.15400
C2330       C  0.99679068  0.07954006  0.28061271    -0.23600
H2331       H  0.14147431  0.07420440  0.28552878     0.05600
H2332       H  0.13985122  0.08726752  0.32841547     0.08800
H2333       H  0.14578603  0.12047937  0.29640503     0.08800
H2334       H  0.99590805  0.05163499  0.27120393     0.08800
H2335       H  0.98511762  0.09691014  0.26170129     0.08800
H2336       H  0.98287825  0.08122577  0.30433228     0.05600
C2337       C  0.95896628  0.07033894  0.12581214    -0.20200
C2338       C  0.94298786  0.03844707  0.11888354    -0.06800
C2339       C  0.95668127  0.00619345  0.12906692     0.14100
C2340       C  0.98455392  0.00681228  0.14908158    -0.20300
C2341       C  0.99889935  0.03905516  0.15887323    -0.06800
C2342       C  0.98684694  0.07115790  0.14573147     0.14100
C2343       C  0.00277408  0.10637528  0.15265130    -0.23600
H2344       H  0.94828071  0.09500992  0.11746812     0.15400
H2345       H  0.99415512  0.98202595  0.15839350     0.15400
C2346       C  0.94185477  0.97111611  0.12013366    -0.23600
H2347       H  0.99156414  0.12767939  0.13752608     0.05600
H2348       H  0.02856793  0.10461585  0.14593121     0.08800
H2349       H  0.00029401  0.11448617  0.17960664     0.08800
H2350       H  0.95985103  0.95373704  0.10736072     0.08800
H2351       H  0.92110088  0.97393252  0.10256885     0.08800
H2352       H  0.93389789  0.95839858  0.14358393     0.05600
C2353       C  0.12520095  0.93682357  0.24292120    -0.20200
C2354       C  0.12960491  0.91672167  0.21334863    -0.06800
C2355       C  0.11448117  0.92710923  0.18265863     0.14100
C2356       C  0.09581119  0.95786200  0.18250886    -0.20300
C2357       C  0.09041544  0.97762116  0.21221578    -0.06800
C2358       C  0.10539785  0.96700354  0.24304019     0.14100
C2359       C  0.09974939  0.98584259  0.27655269    -0.23600
H2360       H  0.13624911  0.92790708  0.26624133     0.15400
H2361       H  0.08452383  0.96595452  0.15903265     0.15400
C2362       C  0.11614554  0.90517438  0.15019221    -0.23600
H2363       H  0.11158701  0.97190232  0.29785305     0.05600
H2364       H  0.07360922  0.98713238  0.28180303     0.08800
H2365       H  0.10988403  0.01291243  0.27634192     0.08800
H2366       H  0.10545111  0.87874830  0.15354443     0.08800
H2367       H  0.14116219  0.90199379  0.14177822     0.08800
H2368       H  0.10261847  0.91776784  0.12919448     0.05600
C2369       C  0.12568806  0.31841321  0.22010150    -0.20200
C2370       C  0.12343861  0.33918834  0.24991650    -0.06800
C2371       C  0.14658651  0.33471952  0.27583264     0.14100
C2372       C  0.17075323  0.30892075  0.27175858    -0.20300
C2373       C  0.17292338  0.28757231  0.24211571    -0.06800
C2374       C  0.15005927  0.29281236  0.21571665     0.14100
C2375       C  0.15063526  0.27170032  0.18291586    -0.23600
H2376       H  0.10869135  0.32302882  0.19962971     0.15400
H2377       H  0.18823582  0.30562923  0.29200824     0.15400
C2378       C  0.14571196  0.35698045  0.30793320    -0.23600
H2379       H  0.13036309  0.27899292  0.16581573     0.05600
H2380       H  0.14860997  0.24301376  0.18798505     0.08800
H2381       H  0.17321456  0.27688288  0.16931396     0.08800
H2382       H  0.12235581  0.35325351  0.32048442     0.08800
H2383       H  0.14870883  0.38539112  0.30219912     0.08800
H2384       H  0.16517311  0.34949143  0.32596733     0.05600
C2385       C  0.97385884  0.32000438  0.10787554    -0.20200
C2386       C  0.00078604  0.31521659  0.08695839    -0.06800
C2387       C  0.03142082  0.32582361  0.09903576     0.14100
C2388       C  0.03387997  0.34289288  0.13061064    -0.20300
C2389       C  0.00648335  0.35089935  0.14976796    -0.06800
C2390       C  0.97639085  0.33772968  0.13929449     0.14100
C2391       C  0.94697929  0.34141505  0.16093833    -0.23600
H2392       H  0.95055674  0.31040659  0.09942033     0.15400
H2393       H  0.05707231  0.35252736  0.13944253     0.15400
C2394       C  0.06167810  0.31928144  0.07917845    -0.23600
H2395       H  0.92749401  0.35519110  0.14695761     0.05600
H2396       H  0.95176877  0.35625345  0.18497526     0.08800
H2397       H  0.93840562  0.31465344  0.16732765     0.08800
H2398       H  0.06100728  0.33506196  0.05586584     0.08800
H2399       H  0.06412974  0.29064911  0.07257127     0.08800
H2400       H  0.08349805  0.32729276  0.09380951     0.05600
C2401       C  0.04606815  0.25846768  0.91666445    -0.20200
C2402       C  0.07829649  0.25576480  0.92727073    -0.06800
C2403       C  0.08879828  0.27497718  0.95625073     0.14100
C2404       C  0.06576273  0.29099749  0.97736561    -0.20300
C2405       C  0.03286001  0.28798922  0.96950375    -0.06800
C2406       C  0.02337539  0.27549211  0.93702063     0.14100
C2407       C  0.98898425  0.27698224  0.92463869    -0.23600
H2408       H  0.03804704  0.24497769  0.89361433     0.15400
H2409       H  0.07326417  0.30185538  0.00175177     0.15400
C2410       C  0.12392573  0.27695213  0.96558322    -0.23600
H2411       H  0.98783616  0.29035107  0.89993824     0.05600
H2412       H  0.97332708  0.29218115  0.94235634     0.08800
H2413       H  0.97948887  0.24970682  0.92131286     0.08800
H2414       H  0.13726009  0.28880050  0.94455741     0.08800
H2415       H  0.13375705  0.25009261  0.97033632     0.08800
H2416       H  0.12798068  0.29362626  0.98871319     0.05600
C2417       C  0.93666257  0.20601813  0.99624965    -0.20200
C2418       C  0.95620864  0.21425970  0.02449145    -0.06800
C2419       C  0.95806670  0.19079544  0.05179755     0.14100
C2420       C  0.93823869  0.16126011  0.05136228    -0.20300
C2421       C  0.91600872  0.15532095  0.02496994    -0.06800
C2422       C  0.91603223  0.17692543  0.99645679     0.14100
C2423       C  0.89322559  0.17028719  0.96730774    -0.23600
H2424       H  0.93612839  0.22354899  0.97490917     0.15400
H2425       H  0.93792434  0.14447359  0.07324522     0.15400
C2426       C  0.98044854  0.19671191  0.08167952    -0.23600
H2427       H  0.89679791  0.18950970  0.94692103     0.05600
H2428       H  0.86815375  0.17297629  0.97612471     0.08800
H2429       H  0.89713916  0.14315684  0.95665176     0.08800
H2430       H  0.97297784  0.22059718  0.09651565     0.08800
H2431       H  0.00545789  0.19975242  0.07282925     0.08800
H2432       H  0.98018561  0.17411359  0.09910116     0.05600
C2433       C  0.95439109  0.25493719  0.51082139    -0.20200
C2434       C  0.98526069  0.25381707  0.52560659    -0.06800
C2435       C  0.98977523  0.26440721  0.55967291     0.14100
C2436       C  0.96429296  0.28047867  0.57666719    -0.20300
C2437       C  0.93421260  0.28492363  0.56072951    -0.06800
C2438       C  0.92870136  0.27065108  0.52797932     0.14100
C2439       C  0.89673645  0.27330587  0.50979345    -0.23600
H2440       H  0.95087789  0.24681062  0.48456507     0.15400
H2441       H  0.96814506  0.29056604  0.60224972     0.15400
C2442       C  0.02161633  0.26079870  0.57795944    -0.23600
H2443       H  0.88954213  0.24672732  0.50006433     0.05600
H2444       H  0.89894531  0.29108265  0.48798689     0.08800
H2445       H  0.87724616  0.28359038  0.52623869     0.08800
H2446       H  0.03095880  0.28747461  0.58494192     0.08800
H2447       H  0.03978566  0.24647987  0.56242424     0.08800
H2448       H  0.01835647  0.24558632  0.60135711     0.05600
C2449       C  0.02248586  0.16602704  0.38923179    -0.20200
C2450       C  0.99188920  0.17333758  0.37542547    -0.06800
C2451       C  0.97848972  0.20783180  0.37938090     0.14100
C2452       C  0.99545815  0.23334033  0.39832145    -0.20300
C2453       C  0.02382718  0.22437108  0.41552096    -0.06800
C2454       C  0.03814566  0.19096425  0.41020513     0.14100
C2455       C  0.06800407  0.18072237  0.42972909    -0.23600
H2456       H  0.03193209  0.13931699  0.38749497     0.15400
H2457       H  0.98429940  0.25890333  0.40369050     0.15400
C2458       C  0.94464710  0.21676363  0.36791557    -0.23600
H2459       H  0.07578177  0.15342037  0.42341623     0.05600
H2460       H  0.06342326  0.18213225  0.45732406     0.08800
H2461       H  0.08784842  0.19891554  0.42376708     0.08800
H2462       H  0.92742584  0.19768802  0.37834718     0.08800
H2463       H  0.94286448  0.21628205  0.33997877     0.08800
H2464       H  0.93712697  0.24371248  0.37665149     0.05600
C2465       C  0.05979883  0.34934964  0.50946064    -0.20200
C2466       C  0.06594575  0.32745313  0.48066749    -0.06800
C2467       C  0.08675131  0.33987653  0.45560007     0.14100
C2468       C  0.10160582  0.37251803  0.46099568    -0.20300
C2469       C  0.09691941  0.39295188  0.49075993    -0.06800
C2470       C  0.07476333  0.38200586  0.51456016     0.14100
C2471       C  0.06598623  0.40420615  0.54511537    -0.23600
H2472       H  0.04305454  0.34123250  0.52848325     0.15400
H2473       H  0.11818149  0.38189095  0.44234026     0.15400
C2474       C  0.09402427  0.31945815  0.42331801    -0.23600
H2475       H  0.07016354  0.38846311  0.56796243     0.05600
H2476       H  0.04010038  0.41147293  0.54368252     0.08800
H2477       H  0.08005584  0.42893835  0.54754224     0.08800
H2478       H  0.07174167  0.31628096  0.40785487     0.08800
H2479       H  0.10455957  0.29316861  0.42925472     0.08800
H2480       H  0.11159745  0.33337916  0.40753335     0.05600
C2481       C  0.88261619  0.47398659  0.34132962    -0.20200
C2482       C  0.90897767  0.46435299  0.36189477    -0.06800
C2483       C  0.91995017  0.48903435  0.38681331     0.14100
C2484       C  0.91086854  0.52460525  0.38418703    -0.20300
C2485       C  0.88989158  0.53522634  0.35828000    -0.06800
C2486       C  0.87469715  0.50957116  0.33732324     0.14100
C2487       C  0.85099832  0.51987830  0.30995962    -0.23600
H2488       H  0.87188558  0.45462845  0.32406785     0.15400
H2489       H  0.91977660  0.54402458  0.40253635     0.15400
C2490       C  0.94243116  0.47858188  0.41506923    -0.23600
H2491       H  0.84253643  0.49648176  0.29492849     0.05600
H2492       H  0.86264218  0.53821925  0.29240505     0.08800
H2493       H  0.82962601  0.53311766  0.32117976     0.08800
H2494       H  0.96547222  0.49299231  0.41314977     0.08800
H2495       H  0.94742662  0.44964451  0.41457688     0.08800
H2496       H  0.93122912  0.48529731  0.43971179     0.05600
C2497       C  0.93127863  0.46016346  0.24199831    -0.20200
C2498       C  0.93183390  0.42612924  0.25577743    -0.06800
C2499       C  0.91204009  0.39933681  0.24222541     0.14100
C2500       C  0.89222029  0.40703204  0.21471271    -0.20300
C2501       C  0.89130958  0.44114202  0.20116941    -0.06800
C2502       C  0.91089639  0.46807556  0.21481043     0.14100
C2503       C  0.90989749  0.50485863  0.20089064    -0.23600
H2504       H  0.94553823  0.48108083  0.25375711     0.15400
H2505       H  0.87767467  0.38620451  0.20322484     0.15400
C2506       C  0.91181686  0.36283663  0.25683755    -0.23600
H2507       H  0.92647269  0.52294176  0.21498418     0.05600
H2508       H  0.88513925  0.51587591  0.20286576     0.08800
H2509       H  0.91700720  0.50403741  0.17393387     0.08800
H2510       H  0.90373519  0.36430932  0.28346033     0.08800
H2511       H  0.93640210  0.35120512  0.25595305     0.08800
H2512       H  0.89534693  0.34484342  0.24248503     0.05600
C2513       C  0.05235091  0.49930264  0.36077672    -0.20200
C2514       C  0.07375901  0.47222266  0.36951899    -0.06800
C2515       C  0.06851054  0.43692508  0.35788779     0.14100
C2516       C  0.04086054  0.42920628  0.33922508    -0.20300
C2517       C  0.01804820  0.45551945  0.33346071    -0.06800
C2518       C  0.02401169  0.49119204  0.34303482     0.14100
C2519       C  0.00008834  0.52030954  0.33548767    -0.23600
H2520       H  0.05705113  0.52625552  0.36935412     0.15400
H2521       H  0.03558016  0.40198312  0.33189137     0.15400
C2522       C  0.09075433  0.40683266  0.36708932    -0.23600
H2523       H  0.00915857  0.54668618  0.34393248     0.05600
H2524       H  0.97719173  0.51579131  0.34866341     0.08800
H2525       H  0.99534727  0.52099867  0.30782526     0.08800
H2526       H  0.09320543  0.40568089  0.39493149     0.08800
H2527       H  0.11463131  0.41061984  0.35576015     0.08800
H2528       H  0.08151635  0.38082746  0.35779840     0.05600
C2529       C  0.79210121  0.41511506  0.48590272    -0.20200
C2530       C  0.78550443  0.45187288  0.48586702    -0.06800
C2531       C  0.80118872  0.47397571  0.51012202     0.14100
C2532       C  0.82148312  0.45862700  0.53442076    -0.20300
C2533       C  0.82687115  0.42192430  0.53485348    -0.06800
C2534       C  0.81221584  0.39988812  0.51005621     0.14100
C2535       C  0.81568623  0.36000363  0.51028287    -0.23600
H2536       H  0.78044268  0.39747022  0.46770670     0.15400
H2537       H  0.83135911  0.47505711  0.55471517     0.15400
C2538       C  0.79609293  0.51334671  0.51164930    -0.23600
H2539       H  0.80089536  0.34692091  0.49011899     0.05600
H2540       H  0.80779238  0.34983365  0.53491431     0.08800
H2541       H  0.84104345  0.35212228  0.50591046     0.08800
H2542       H  0.77104768  0.51910640  0.51925859     0.08800
H2543       H  0.80130418  0.52500767  0.48681545     0.08800
H2544       H  0.81222622  0.52607067  0.53063595     0.05600
C2545       C  0.70607726  0.55069710  0.39971146    -0.20200
C2546       C  0.71321852  0.54291193  0.43359316    -0.06800
C2547       C  0.72473839  0.57083427  0.45463754     0.14100
C2548       C  0.73866486  0.60001880  0.43940179    -0.20300
C2549       C  0.74294734  0.59934144  0.40423654    -0.06800
C2550       C  0.72562614  0.57485505  0.38390954     0.14100
C2551       C  0.73376319  0.56799978  0.34734187    -0.23600
H2552       H  0.69363844  0.53134749  0.38383626     0.15400
H2553       H  0.75101656  0.61961178  0.45506718     0.15400
C2554       C  0.72465275  0.56929683  0.49249189    -0.23600
H2555       H  0.71670134  0.54937242  0.33474039     0.05600
H2556       H  0.75810787  0.55595691  0.34552062     0.08800
H2557       H  0.73372075  0.59292534  0.33356870     0.08800
H2558       H  0.74954292  0.57199011  0.50252570     0.08800
H2559       H  0.71412030  0.54424276  0.50122433     0.08800
H2560       H  0.71007196  0.59171639  0.50279689     0.05600
C2561       C  0.68384516  0.40953774  0.34084007    -0.20200
C2562       C  0.67075809  0.38193761  0.35903586    -0.06800
C2563       C  0.68689532  0.36944021  0.38809243     0.14100
C2564       C  0.71102285  0.39009515  0.40271359    -0.20300
C2565       C  0.71873143  0.42253553  0.38868070    -0.06800
C2566       C  0.70786038  0.43057006  0.35576650     0.14100
C2567       C  0.72050775  0.46147981  0.33670650    -0.23600
H2568       H  0.67339583  0.41662331  0.31664624     0.15400
H2569       H  0.72081559  0.38306640  0.42722886     0.15400
C2570       C  0.67681559  0.33614361  0.40525885    -0.23600
H2571       H  0.70081552  0.48058823  0.33133201     0.05600
H2572       H  0.73062542  0.45174142  0.31234385     0.08800
H2573       H  0.73991459  0.47556367  0.35088047     0.08800
H2574       H  0.67965778  0.31307355  0.38761800     0.08800
H2575       H  0.65139137  0.33849718  0.41302293     0.08800
H2576       H  0.69161658  0.33097896  0.42822292     0.05600
C2577       C  0.82152637  0.18444691  0.23919930    -0.20200
C2578       C  0.81117273  0.20777743  0.26493101    -0.06800
C2579       C  0.83079763  0.21426856  0.29365559     0.14100
C2580       C  0.85891188  0.19418809  0.29778591    -0.20300
C2581       C  0.86691578  0.16722174  0.27429872    -0.06800
C2582       C  0.84951424  0.16404290  0.24354893     0.14100
C2583       C  0.85910148  0.13709716  0.21682714    -0.23600
H2584       H  0.80667522  0.18058956  0.21671672     0.15400
H2585       H  0.87243720  0.19646319  0.32135564     0.15400
C2586       C  0.82087929  0.24036804  0.32104432    -0.23600
H2587       H  0.84291246  0.13803333  0.19429826     0.05600
H2588       H  0.85814198  0.11003080  0.22706426     0.08800
H2589       H  0.88396819  0.14241069  0.20860006     0.08800
H2590       H  0.79725659  0.23282081  0.33131041     0.08800
H2591       H  0.81898672  0.26726565  0.31047778     0.08800
H2592       H  0.83860525  0.24131250  0.34228325     0.05600
C2593       C  0.69699347  0.19635066  0.31889999    -0.20200
C2594       C  0.69534111  0.20112335  0.28383352    -0.06800
C2595       C  0.66489951  0.20331373  0.26780060     0.14100
C2596       C  0.63776147  0.20957428  0.28769458    -0.20300
C2597       C  0.64149242  0.21525857  0.32267549    -0.06800
C2598       C  0.67005650  0.20406050  0.33876610     0.14100
C2599       C  0.67288970  0.20433238  0.37674086    -0.23600
H2600       H  0.72021711  0.19284280  0.33117330     0.15400
H2601       H  0.61518644  0.21660511  0.27545945     0.15400
C2602       C  0.66120216  0.20390562  0.22994688    -0.23600
H2603       H  0.69696356  0.19495456  0.38530327     0.05600
H2604       H  0.65455797  0.18648018  0.38707705     0.08800
H2605       H  0.66897003  0.23156505  0.38715227     0.08800
H2606       H  0.68441969  0.19901072  0.21707985     0.08800
H2607       H  0.65151311  0.23005583  0.22222525     0.08800
H2608       H  0.64426692  0.18285920  0.22146158     0.05600
C2609       C  0.72400513  0.31584206  0.21309347    -0.20200
C2610       C  0.74265822  0.30937692  0.24199603    -0.06800
C2611       C  0.76531036  0.33478883  0.25321610     0.14100
C2612       C  0.77414013  0.36146871  0.23135190    -0.20300
C2613       C  0.76036855  0.36316509  0.19885871    -0.06800
C2614       C  0.73266629  0.34260709  0.19112573     0.14100
C2615       C  0.71523776  0.34427901  0.15753004    -0.23600
H2616       H  0.70581821  0.29694333  0.20503015     0.15400
H2617       H  0.79476860  0.37759810  0.23807193     0.15400
C2618       C  0.78234241  0.33247690  0.28692179    -0.23600
H2619       H  0.71810991  0.31868245  0.14345281     0.05600
H2620       H  0.72439071  0.36563244  0.14155605     0.08800
H2621       H  0.68924714  0.34907815  0.16174208     0.08800
H2622       H  0.80841764  0.32770757  0.28304148     0.08800
H2623       H  0.77266685  0.31102597  0.30247609     0.08800
H2624       H  0.77905494  0.35781228  0.30132479     0.05600
C2625       C  0.97656245  0.57849371  0.65536373    -0.20200
C2626       C  0.95756296  0.59805789  0.67839273    -0.06800
C2627       C  0.92579648  0.60650934  0.66914039     0.14100
C2628       C  0.91179203  0.58867423  0.64135127    -0.20300
C2629       C  0.92826546  0.56035170  0.62506630    -0.06800
C2630       C  0.96180574  0.55738136  0.63008410     0.14100
C2631       C  0.98137836  0.52958051  0.61148677    -0.23600
H2632       H  0.00150297  0.57316039  0.66196835     0.15400
H2633       H  0.88707612  0.59461310  0.63495616     0.15400
C2634       C  0.90573330  0.63091479  0.69107895    -0.23600
H2635       H  0.00712698  0.53044406  0.61914105     0.05600
H2636       H  0.97980984  0.53400922  0.58387719     0.08800
H2637       H  0.97221460  0.50279343  0.61690525     0.08800
H2638       H  0.91716409  0.65734351  0.69300927     0.08800
H2639       H  0.90369000  0.62003690  0.71679759     0.08800
H2640       H  0.88105914  0.63435843  0.68051697     0.05600
C2641       C  0.97471133  0.45945177  0.68608402    -0.20200
C2642       C  0.00768116  0.45218663  0.69042318    -0.06800
C2643       C  0.02310925  0.46418604  0.72090448     0.14100
C2644       C  0.00580406  0.48444280  0.74453809    -0.20300
C2645       C  0.97498520  0.49740387  0.73674733    -0.06800
C2646       C  0.95796009  0.48072780  0.70970914     0.14100
C2647       C  0.92272234  0.48755698  0.70398735    -0.23600
H2648       H  0.96231344  0.45052787  0.66326297     0.15400
H2649       H  0.01864149  0.49493022  0.76654333     0.15400
C2650       C  0.05860332  0.46013109  0.72825208    -0.23600
H2651       H  0.90984516  0.46198468  0.70127306     0.05600
H2652       H  0.91943963  0.50295372  0.68069887     0.08800
H2653       H  0.91195551  0.50268986  0.72547796     0.08800
H2654       H  0.07016941  0.48648219  0.72745897     0.08800
H2655       H  0.07109980  0.44212872  0.71030805     0.08800
H2656       H  0.06226368  0.45005003  0.75407939     0.05600
C2657       C  0.05578223  0.57204234  0.77374016    -0.20200
C2658       C  0.03106048  0.59750951  0.77405713    -0.06800
C2659       C  0.03543423  0.62991095  0.79180608     0.14100
C2660       C  0.06305281  0.63411034  0.81236320    -0.20300
C2661       C  0.08507993  0.60587168  0.81614753    -0.06800
C2662       C  0.08244343  0.57538383  0.79504890     0.14100
C2663       C  0.10593245  0.54475184  0.79709859    -0.23600
H2664       H  0.05298511  0.54796651  0.75856855     0.15400
H2665       H  0.06549395  0.65755405  0.82849352     0.15400
C2666       C  0.01004866  0.65852265  0.79122732    -0.23600
H2667       H  0.09862457  0.52202644  0.78049760     0.05600
H2668       H  0.10742290  0.53521650  0.82331774     0.08800
H2669       H  0.13005700  0.55309873  0.78904653     0.08800
H2670       H  0.98713408  0.64817915  0.80094523     0.08800
H2671       H  0.00622968  0.66744551  0.76492023     0.08800
H2672       H  0.01710684  0.68186478  0.80714511     0.05600
C2673       C  0.28617293  0.59262805  0.57385617    -0.20200
C2674       C  0.27526359  0.60106160  0.54144751    -0.06800
C2675       C  0.29000988  0.62821818  0.52331881     0.14100
C2676       C  0.31738483  0.64430184  0.53702706    -0.20300
C2677       C  0.32960273  0.63368005  0.56817117    -0.06800
C2678       C  0.31330317  0.60878454  0.58762013     0.14100
C2679       C  0.32509274  0.59838290  0.62231229    -0.23600
H2680       H  0.27451132  0.57194200  0.58765799     0.15400
H2681       H  0.32982030  0.66436998  0.52317379     0.15400
C2682       C  0.27695407  0.64047889  0.48990623    -0.23600
H2683       H  0.31022516  0.57716800  0.63298115     0.05600
H2684       H  0.32399108  0.62159336  0.63997014     0.08800
H2685       H  0.35022464  0.58850876  0.62097695     0.08800
H2686       H  0.25143429  0.64863835  0.49283601     0.08800
H2687       H  0.27908407  0.61898106  0.47050237     0.08800
H2688       H  0.29031882  0.66361304  0.48068432     0.05600
C2689       C  0.19091835  0.51859891  0.58535815    -0.20200
C2690       C  0.18107662  0.52875425  0.55285981    -0.06800
C2691       C  0.14936304  0.52233865  0.54157012     0.14100
C2692       C  0.12992016  0.50066207  0.56079688    -0.20300
C2693       C  0.14150043  0.48663022  0.59121069    -0.06800
C2694       C  0.17129176  0.49758351  0.60484961     0.14100
C2695       C  0.18313979  0.48496133  0.63871887    -0.23600
H2696       H  0.21495020  0.52481978  0.59446681     0.15400
H2697       H  0.10650846  0.49277503  0.55110222     0.15400
C2698       C  0.13610877  0.53831607  0.50961943    -0.23600
H2699       H  0.20710518  0.49596420  0.64548046     0.05600
H2700       H  0.18520577  0.45564133  0.63842203     0.08800
H2701       H  0.16594115  0.49347209  0.65858628     0.08800
H2702       H  0.14990757  0.52918947  0.48725603     0.08800
H2703       H  0.13744098  0.56764138  0.51178474     0.08800
H2704       H  0.11057172  0.53105747  0.50515578     0.05600
C2705       C  0.33382575  0.76044938  0.75848934    -0.20200
C2706       C  0.30550916  0.74263138  0.76495193    -0.06800
C2707       C  0.29663180  0.71263963  0.74505028     0.14100
C2708       C  0.31783980  0.69935721  0.72077336    -0.20300
C2709       C  0.34709840  0.71604282  0.71528154    -0.06800
C2710       C  0.35425831  0.74808300  0.73292686     0.14100
C2711       C  0.38315076  0.76972831  0.72580307    -0.23600
H2712       H  0.34008610  0.78385486  0.77348281     0.15400
H2713       H  0.31187072  0.67547587  0.70637575     0.15400
C2714       C  0.26499169  0.69426400  0.74975720    -0.23600
H2715       H  0.37560347  0.79738878  0.72060631     0.05600
H2716       H  0.39684576  0.75978632  0.70367552     0.08800
H2717       H  0.39871065  0.76933179  0.74870571     0.08800
H2718       H  0.24487706  0.71326662  0.74562276     0.08800
H2719       H  0.26359292  0.68380641  0.77565120     0.08800
H2720       H  0.26183074  0.67166037  0.73159580     0.05600
C2721       C  0.27753103  0.66380338  0.84719300    -0.20200
C2722       C  0.26338661  0.69459661  0.86185155    -0.06800
C2723       C  0.24027947  0.69098090  0.88707699     0.14100
C2724       C  0.22666845  0.65795192  0.89136301    -0.20300
C2725       C  0.23777368  0.62781567  0.87332990    -0.06800
C2726       C  0.26460933  0.63026862  0.85248236     0.14100
C2727       C  0.27805910  0.59804762  0.83432008    -0.23600
H2728       H  0.29630622  0.66608843  0.82868216     0.15400
H2729       H  0.20620390  0.65596038  0.90787661     0.15400
C2730       C  0.22881926  0.72160450  0.90886833    -0.23600
H2731       H  0.29908628  0.60471681  0.81875619     0.05600
H2732       H  0.25943114  0.58611367  0.81738306     0.08800
H2733       H  0.28585977  0.57816341  0.85303803     0.08800
H2734       H  0.20255183  0.72541004  0.90564524     0.08800
H2735       H  0.24135064  0.74655170  0.90338861     0.08800
H2736       H  0.23367580  0.71575149  0.93572250     0.05600
C2737       C  0.19878753  0.79457837  0.76714006    -0.20200
C2738       C  0.20199339  0.78333753  0.80067396    -0.06800
C2739       C  0.17451246  0.78527283  0.82175847     0.14100
C2740       C  0.14558246  0.79972566  0.80911042    -0.20300
C2741       C  0.14307705  0.81110385  0.77578365    -0.06800
C2742       C  0.16992612  0.80797405  0.75434781     0.14100
C2743       C  0.16858838  0.81909241  0.71785340    -0.23600
H2744       H  0.21891572  0.79239284  0.75021251     0.15400
H2745       H  0.12478542  0.80227511  0.82523829     0.15400
C2746       C  0.17480634  0.77186791  0.85722042    -0.23600
H2747       H  0.19199599  0.81535045  0.70518091     0.05600
H2748       H  0.16205910  0.84747532  0.71632938     0.08800
H2749       H  0.15085699  0.80298817  0.70328067     0.08800
H2750       H  0.19426191  0.78466000  0.87228089     0.08800
H2751       H  0.17817400  0.74270559  0.85629352     0.08800
H2752       H  0.15181347  0.77752902  0.87032095     0.05600
C2753       C  0.21554453  0.52776053  0.42656996    -0.20200
C2754       C  0.24303783  0.52572262  0.44705397    -0.06800
C2755       C  0.27282044  0.53418566  0.43258041     0.14100
C2756       C  0.27295603  0.55810241  0.40603892    -0.20300
C2757       C  0.24373324  0.57010635  0.39253999    -0.06800
C2758       C  0.21514443  0.55109783  0.39952930     0.14100
C2759       C  0.18331528  0.55889940  0.38231093    -0.23600
H2760       H  0.19299127  0.51783733  0.43579389     0.15400
H2761       H  0.29524820  0.57040394  0.39898362     0.15400
C2762       C  0.30413402  0.52322620  0.44876071    -0.23600
H2763       H  0.18480903  0.55271866  0.35497291     0.05600
H2764       H  0.17597256  0.58694280  0.38595156     0.08800
H2765       H  0.16374609  0.54270550  0.39254980     0.08800
H2766       H  0.30016155  0.50547297  0.47030537     0.08800
H2767       H  0.31735307  0.54698312  0.45813840     0.08800
H2768       H  0.31902605  0.50870726  0.42982085     0.05600
C2769       C  0.10809504  0.65973395  0.43190519    -0.20200
C2770       C  0.13072000  0.68688845  0.43367337    -0.06800
C2771       C  0.12757121  0.71457408  0.45769419     0.14100
C2772       C  0.10067746  0.71535349  0.47868986    -0.20300
C2773       C  0.07710503  0.68873587  0.47629007    -0.06800
C2774       C  0.08134972  0.66007741  0.45282204     0.14100
C2775       C  0.05858975  0.62925589  0.44965142    -0.23600
H2776       H  0.11124274  0.63836435  0.41340656     0.15400
H2777       H  0.09795655  0.73711294  0.49680098     0.15400
C2778       C  0.15252148  0.74306080  0.46098285    -0.23600
H2779       H  0.06724449  0.60860212  0.43141510     0.05600
H2780       H  0.03476475  0.63837550  0.44020034     0.08800
H2781       H  0.05633907  0.61654858  0.47452705     0.08800
H2782       H  0.17619842  0.73098441  0.46733579     0.08800
H2783       H  0.14645988  0.76283542  0.48116208     0.08800
H2784       H  0.15445818  0.75701543  0.43676784     0.05600
C2785       C  0.97500534  0.61873103  0.49206096    -0.20200
C2786       C  0.96888690  0.65247366  0.50632860    -0.06800
C2787       C  0.93689590  0.66267161  0.51330054     0.14100
C2788       C  0.91252134  0.63747607  0.50944182    -0.20300
C2789       C  0.91900782  0.60281664  0.49694509    -0.06800
C2790       C  0.95051021  0.59420480  0.48653415     0.14100
C2791       C  0.95933410  0.55895275  0.47041722    -0.23600
H2792       H  0.99935929  0.61083490  0.48597545     0.15400
H2793       H  0.88854102  0.64488736  0.51741149     0.15400
C2794       C  0.92741069  0.69981015  0.52400681    -0.23600
H2795       H  0.97107339  0.56327114  0.44581908     0.05600
H2796       H  0.93812333  0.54213424  0.46525573     0.08800
H2797       H  0.97630137  0.54452902  0.48720621     0.08800
H2798       H  0.94741674  0.71873001  0.52218996     0.08800
H2799       H  0.91848045  0.69998721  0.55033377     0.08800
H2800       H  0.90792793  0.70949569  0.50701716     0.05600
C2801       C  0.06530554  0.73705671  0.59356140    -0.20200
C2802       C  0.03315891  0.73048707  0.58411706    -0.06800
C2803       C  0.00828129  0.74626679  0.60370605     0.14100
C2804       C  0.01646553  0.77029383  0.63004594    -0.20300
C2805       C  0.04851077  0.78001367  0.63604344    -0.06800
C2806       C  0.07332673  0.76228661  0.61835852     0.14100
C2807       C  0.10857515  0.77005423  0.62388286    -0.23600
H2808       H  0.08473419  0.72403900  0.57998526     0.15400
H2809       H  0.99771976  0.78360107  0.64438667     0.15400
C2810       C  0.97325330  0.73997235  0.59607298    -0.23600
H2811       H  0.11962427  0.77626674  0.59940325     0.05600
H2812       H  0.12084285  0.74625365  0.63404137     0.08800
H2813       H  0.11322793  0.79267505  0.64150293     0.08800
H2814       H  0.96779514  0.71138231  0.59807580     0.08800
H2815       H  0.96734942  0.74922113  0.57032073     0.08800
H2816       H  0.95746463  0.75474902  0.61402897     0.05600
C2817       C  0.75150668  0.34624974  0.60387681    -0.20200
C2818       C  0.72208914  0.36408361  0.59990118    -0.06800
C2819       C  0.69524208  0.35392864  0.61912047     0.14100
C2820       C  0.69856776  0.32603159  0.64124551    -0.20300
C2821       C  0.72727108  0.30676892  0.64366701    -0.06800
C2822       C  0.75469528  0.31795482  0.62601858     0.14100
C2823       C  0.78732376  0.30074550  0.63046694    -0.23600
H2824       H  0.77155394  0.35324648  0.58827448     0.15400
H2825       H  0.67762324  0.31762583  0.65488794     0.15400
C2826       C  0.66188487  0.36966378  0.61544654    -0.23600
H2827       H  0.80619937  0.31528486  0.61701613     0.05600
H2828       H  0.78728769  0.27326030  0.62000185     0.08800
H2829       H  0.79408778  0.30064895  0.65772031     0.08800
H2830       H  0.65948721  0.38966064  0.59564686     0.08800
H2831       H  0.65465846  0.38228040  0.63984176     0.08800
H2832       H  0.64470307  0.34822784  0.60885436     0.05600
C2833       C  0.70264499  0.21665293  0.76457280    -0.20200
C2834       C  0.68993978  0.24002142  0.74064269    -0.06800
C2835       C  0.66133281  0.25925039  0.74789121     0.14100
C2836       C  0.64532046  0.25284391  0.77812552    -0.20300
C2837       C  0.65694434  0.22725881  0.80040045    -0.06800
C2838       C  0.68636075  0.20965912  0.79408798     0.14100
C2839       C  0.69984639  0.18200382  0.81753402    -0.23600
H2840       H  0.72505957  0.20271717  0.75969681     0.15400
H2841       H  0.62259134  0.26595225  0.78339028     0.15400
C2842       C  0.64650034  0.28481842  0.72334724    -0.23600
H2843       H  0.72248083  0.16996125  0.80786250     0.05600
H2844       H  0.68224874  0.16037016  0.82033304     0.08800
H2845       H  0.70528613  0.19420291  0.84271010     0.08800
H2846       H  0.64194273  0.27116810  0.69860791     0.08800
H2847       H  0.66276976  0.30755349  0.71998587     0.08800
H2848       H  0.62321909  0.29566587  0.73253698     0.05600
C2849       C  0.79599362  0.20276037  0.68920941    -0.20200
C2850       C  0.77083849  0.19210823  0.66784024    -0.06800
C2851       C  0.77603594  0.16684466  0.64178365     0.14100
C2852       C  0.80722932  0.15357673  0.63714327    -0.20300
C2853       C  0.83319988  0.16721085  0.65635545    -0.06800
C2854       C  0.82734668  0.19233713  0.68280700     0.14100
C2855       C  0.85292785  0.21143863  0.70322727    -0.23600
H2856       H  0.79161647  0.22278728  0.70882106     0.15400
H2857       H  0.81173024  0.13449542  0.61680124     0.15400
C2858       C  0.74965644  0.15454371  0.61805969    -0.23600
H2859       H  0.85002883  0.24044751  0.70005303     0.05600
H2860       H  0.87749647  0.20434851  0.69574736     0.08800
H2861       H  0.85035678  0.20550437  0.73042170     0.08800
H2862       H  0.75568697  0.16141175  0.59175350     0.08800
H2863       H  0.72607744  0.16678989  0.62430940     0.08800
H2864       H  0.74725833  0.12534640  0.61946511     0.05600
C2865       C  0.48301121  0.18225710  0.62544399    -0.20200
C2866       C  0.48397037  0.19928402  0.59436199    -0.06800
C2867       C  0.45528009  0.20659590  0.57645843     0.14100
C2868       C  0.42643092  0.19344674  0.58829297    -0.20300
C2869       C  0.42568171  0.17361178  0.61782114    -0.06800
C2870       C  0.45384694  0.16980243  0.63779997     0.14100
C2871       C  0.45331636  0.15152516  0.67127683    -0.23600
H2872       H  0.50528535  0.17680468  0.63894223     0.15400
H2873       H  0.40473083  0.19635832  0.57309134     0.15400
C2874       C  0.45545968  0.22569766  0.54337396    -0.23600
H2875       H  0.47743361  0.15129927  0.68363692     0.05600
H2876       H  0.44552772  0.12365453  0.66790539     0.08800
H2877       H  0.43648094  0.16568823  0.68849148     0.08800
H2878       H  0.47009461  0.21060327  0.52460638     0.08800
H2879       H  0.46580857  0.25248525  0.54740708     0.08800
H2880       H  0.43084466  0.22890843  0.53260462     0.05600
C2881       C  0.58377492  0.14688314  0.49412048    -0.20200
C2882       C  0.55642970  0.14216092  0.51375608    -0.06800
C2883       C  0.53704641  0.11180902  0.50735855     0.14100
C2884       C  0.54523012  0.08813645  0.48066588    -0.20300
C2885       C  0.57120167  0.09504066  0.45965401    -0.06800
C2886       C  0.59047712  0.12518848  0.46637615     0.14100
C2887       C  0.61734927  0.13633448  0.44366700    -0.23600
H2888       H  0.59944849  0.16918957  0.49921992     0.15400
H2889       H  0.53046631  0.06519052  0.47504539     0.15400
C2890       C  0.50727684  0.10462533  0.52727480    -0.23600
H2891       H  0.62614080  0.16333675  0.45030570     0.05600
H2892       H  0.60894820  0.13699525  0.41694995     0.08800
H2893       H  0.63822112  0.11830986  0.44656736     0.08800
H2894       H  0.48954004  0.12647734  0.52405009     0.08800
H2895       H  0.51364504  0.10196315  0.55444457     0.08800
H2896       H  0.49548919  0.07966527  0.51866608     0.05600
C2897       C  0.57929830  0.27031732  0.50549052    -0.20200
C2898       C  0.56824602  0.26741016  0.53891728    -0.06800
C2899       C  0.57497454  0.29479581  0.56276228     0.14100
C2900       C  0.59412766  0.32303897  0.55309594    -0.20300
C2901       C  0.60608611  0.32514863  0.52009373    -0.06800
C2902       C  0.59784836  0.29905134  0.49574204     0.14100
C2903       C  0.60855995  0.30150595  0.45967416    -0.23600
H2904       H  0.57358923  0.24978485  0.48682811     0.15400
H2905       H  0.59971840  0.34389307  0.57141149     0.15400
C2906       C  0.56288127  0.29422257  0.59849090    -0.23600
H2907       H  0.59967529  0.27895743  0.44373187     0.05600
H2908       H  0.63518652  0.30126197  0.45891469     0.08800
H2909       H  0.59924590  0.32637918  0.44858183     0.08800
H2910       H  0.57154831  0.26988052  0.61106942     0.08800
H2911       H  0.53620789  0.29507690  0.59828807     0.08800
H2912       H  0.57140295  0.31741917  0.61377658     0.05600
C2913       C  0.72740830  0.08041541  0.45965757    -0.20200
C2914       C  0.71626972  0.05506266  0.43619513    -0.06800
C2915       C  0.73128154  0.02166530  0.43293778     0.14100
C2916       C  0.75783344  0.01417397  0.45320626    -0.20300
C2917       C  0.76931168  0.03956144  0.47633930    -0.06800
C2918       C  0.75405179  0.07292144  0.48011798     0.14100
C2919       C  0.76513289  0.09991957  0.50632186    -0.23600
H2920       H  0.71515997  0.10581064  0.46196602     0.15400
H2921       H  0.76975145  0.98856152  0.45099754     0.15400
C2922       C  0.71913133  0.99409272  0.40814772    -0.23600
H2923       H  0.74944201  0.12388083  0.50664557     0.05600
H2924       H  0.78994399  0.10842273  0.50084825     0.08800
H2925       H  0.76464270  0.08823671  0.53182643     0.08800
H2926       H  0.71915839  0.00502220  0.38240953     0.08800
H2927       H  0.69425458  0.98667363  0.41456845     0.08800
H2928       H  0.73436374  0.96980329  0.40829522     0.05600
C2929       C  0.80397753  0.93510580  0.54659809    -0.20200
C2930       C  0.81417956  0.96642563  0.56265052    -0.06800
C2931       C  0.80351638  0.97458699  0.59565729     0.14100
C2932       C  0.77967433  0.95352125  0.60992568    -0.20300
C2933       C  0.76521651  0.92593454  0.59095411    -0.06800
C2934       C  0.77759374  0.91688434  0.55868327     0.14100
C2935       C  0.76043600  0.89219852  0.53451329    -0.23600
H2936       H  0.81215561  0.92930024  0.52110442     0.15400
H2937       H  0.77038821  0.96045709  0.63469777     0.15400
C2938       C  0.81532082  0.00715334  0.61444682    -0.23600
H2939       H  0.76026749  0.86537926  0.54456454     0.05600
H2940       H  0.77212961  0.89045858  0.50944159     0.08800
H2941       H  0.73558320  0.90205313  0.53047288     0.08800
H2942       H  0.80911039  0.03125224  0.60007764     0.08800
H2943       H  0.84180942  0.00539741  0.61777947     0.08800
H2944       H  0.80442489  0.00991783  0.63986060     0.05600
C2945       C  0.87462329  0.09505389  0.49297470    -0.20200
C2946       C  0.87603496  0.06715303  0.51639879    -0.06800
C2947       C  0.90012835  0.06791777  0.54177814     0.14100
C2948       C  0.91850727  0.09837683  0.54588906    -0.20300
C2949       C  0.91249234  0.12880155  0.52668543    -0.06800
C2950       C  0.89206641  0.12624977  0.49838203     0.14100
C2951       C  0.88807335  0.15664096  0.47466416    -0.23600
H2952       H  0.85789478  0.09391912  0.47177711     0.15400
H2953       H  0.93529066  0.09959596  0.56681307     0.15400
C2954       C  0.90543318  0.03841962  0.56633159    -0.23600
H2955       H  0.87159576  0.14990148  0.45320763     0.05600
H2956       H  0.91177371  0.16353250  0.46419729     0.08800
H2957       H  0.87807096  0.18011032  0.48829514     0.08800
H2958       H  0.90889974  0.01299664  0.55217947     0.08800
H2959       H  0.88464708  0.03670642  0.58345598     0.08800
H2960       H  0.92701387  0.04289000  0.58262574     0.05600
C2961       C  0.44068707  0.97163864  0.63802565    -0.20200
C2962       C  0.44550119  0.98481651  0.67139605    -0.06800
C2963       C  0.41809643  0.99471577  0.69025242     0.14100
C2964       C  0.38990662  0.00313160  0.67255257    -0.20300
C2965       C  0.38868073  0.99992541  0.63713114    -0.06800
C2966       C  0.41226657  0.97963562  0.62037196     0.14100
C2967       C  0.40923274  0.96968795  0.58343394    -0.23600
H2968       H  0.46059190  0.96019114  0.62402485     0.15400
H2969       H  0.37041695  0.01630901  0.68593852     0.15400
C2970       C  0.41839096  0.99947970  0.72814172    -0.23600
H2971       H  0.41091590  0.94043641  0.58028405     0.05600
H2972       H  0.42891646  0.98183068  0.56912775     0.08800
H2973       H  0.38584395  0.97847243  0.57251822     0.08800
H2974       H  0.41614591  0.02804792  0.73513171     0.08800
H2975       H  0.44039600  0.98814560  0.73990158     0.08800
H2976       H  0.39774656  0.98516967  0.73874561     0.05600
C2977       C  0.55200277  0.04262943  0.75805049    -0.20200
C2978       C  0.52109655  0.05216463  0.74653512    -0.06800
C2979       C  0.50435513  0.08023259  0.76289468     0.14100
C2980       C  0.51964976  0.09875398  0.78961377    -0.20300
C2981       C  0.55088971  0.08970152  0.80040630    -0.06800
C2982       C  0.56740640  0.06145628  0.78419120     0.14100
C2983       C  0.60179884  0.05162347  0.79251930    -0.23600
H2984       H  0.56507449  0.02142008  0.74514936     0.15400
H2985       H  0.50776009  0.12162380  0.80087720     0.15400
C2986       C  0.47143064  0.09275076  0.75187655    -0.23600
H2987       H  0.61665007  0.05407510  0.76957791     0.05600
H2988       H  0.60296688  0.02377346  0.80090127     0.08800
H2989       H  0.61266858  0.06865571  0.81268290     0.08800
H2990       H  0.45447587  0.09022740  0.77312070     0.08800
H2991       H  0.46163810  0.07765459  0.72983542     0.08800
H2992       H  0.47248988  0.12103551  0.74490463     0.05600
C2993       C  0.57542070  0.97108232  0.59411523    -0.20200
C2994       C  0.60360051  0.96711819  0.61352440    -0.06800
C2995       C  0.60995108  0.99064530  0.64096906     0.14100
C2996       C  0.58576134  0.01402259  0.65139176    -0.20300
C2997       C  0.55492018  0.01214172  0.63656773    -0.06800
C2998       C  0.55099355  0.99414829  0.60509885     0.14100
C2999       C  0.52097636  0.99754559  0.58368951    -0.23600
H3000       H  0.57128468  0.95385715  0.57221037     0.15400
H3001       H  0.58966575  0.02956587  0.67441767     0.15400
C3002       C  0.64028170  0.98782248  0.66214981    -0.23600
H3003       H  0.52757570  0.00545480  0.55783279     0.05600
H3004       H  0.50430446  0.01818334  0.59379830     0.08800
H3005       H  0.50839630  0.97174923  0.58204041     0.08800
H3006       H  0.66151718  0.99316919  0.64649258     0.08800
H3007       H  0.64252656  0.96089048  0.67270026     0.08800
H3008       H  0.64042080  0.00719133  0.68371097     0.05600
C3009       C  0.49068347  0.50003855  0.17854168    -0.20200
C3010       C  0.47686622  0.50842590  0.20996790    -0.06800
C3011       C  0.44727046  0.52622028  0.21164009     0.14100
C3012       C  0.43186430  0.53542084  0.18159734    -0.20300
C3013       C  0.44463978  0.52514508  0.15014261    -0.06800
C3014       C  0.47450346  0.50747668  0.14839473     0.14100
C3015       C  0.48842812  0.49481630  0.11520960    -0.23600
H3016       H  0.51338271  0.48583191  0.17759464     0.15400
H3017       H  0.40898885  0.54938698  0.18252893     0.15400
C3018       C  0.43185782  0.53512810  0.24485939    -0.23600
H3019       H  0.51140029  0.48008790  0.11893081     0.05600
H3020       H  0.49337177  0.51762439  0.09897289     0.08800
H3021       H  0.47122604  0.47681412  0.10194039     0.08800
H3022       H  0.42705661  0.51056884  0.25877274     0.08800
H3023       H  0.40867361  0.54921420  0.24090416     0.08800
H3024       H  0.44798799  0.55245147  0.26029618     0.05600
C3025       C  0.45829678  0.39809797  0.25150344    -0.20200
C3026       C  0.48565447  0.40423965  0.27216468    -0.06800
C3027       C  0.50940902  0.37740371  0.27128236     0.14100
C3028       C  0.51295482  0.35773723  0.24106579    -0.20300
C3029       C  0.49250527  0.36479730  0.21318617    -0.06800
C3030       C  0.46335407  0.38320381  0.21908175     0.14100
C3031       C  0.44037412  0.39181464  0.19063007    -0.23600
H3032       H  0.43723758  0.41476041  0.25532866     0.15400
H3033       H  0.53443771  0.34168314  0.23760379     0.15400
C3034       C  0.53460977  0.37441083  0.29866171    -0.23600
H3035       H  0.43127468  0.36727855  0.17834934     0.05600
H3036       H  0.45282167  0.40762213  0.17151226     0.08800
H3037       H  0.41935015  0.40747354  0.19973902     0.08800
H3038       H  0.52914042  0.39242426  0.32046570     0.08800
H3039       H  0.55852375  0.38125437  0.28864411     0.08800
H3040       H  0.53559286  0.34681956  0.30768737     0.05600
C3041       C  0.43145515  0.71129471  0.03342134    -0.20200
C3042       C  0.45035000  0.71765059  0.00504542    -0.06800
C3043       C  0.45745457  0.68869624  0.98253875     0.14100
C3044       C  0.44823757  0.65431742  0.99102171    -0.20300
C3045       C  0.43195119  0.64807251  0.02096039    -0.06800
C3046       C  0.42244894  0.67717397  0.04188037     0.14100
C3047       C  0.40292729  0.67372312  0.07356350    -0.23600
H3048       H  0.42450538  0.73301341  0.05025563     0.15400
H3049       H  0.45378589  0.63205256  0.97424096     0.15400
C3050       C  0.47444427  0.69313003  0.94953735    -0.23600
H3051       H  0.37990234  0.68851751  0.07068235     0.05600
H3052       H  0.41649737  0.68521981  0.09547746     0.08800
H3053       H  0.39715891  0.64616611  0.07975903     0.08800
H3054       H  0.49977847  0.70081362  0.95414442     0.08800
H3055       H  0.46175986  0.71347803  0.93441420     0.08800
H3056       H  0.47489886  0.66811103  0.93423161     0.05600
C3057       C  0.52094013  0.84075211  0.11319973    -0.20200
C3058       C  0.49595627  0.86183298  0.12641940    -0.06800
C3059       C  0.46526876  0.86085045  0.11060126     0.14100
C3060       C  0.46121908  0.84115678  0.08034551    -0.20300
C3061       C  0.48694175  0.82175171  0.06651839    -0.06800
C3062       C  0.51639640  0.81950637  0.08447091     0.14100
C3063       C  0.54330666  0.79435088  0.07477559    -0.23600
H3064       H  0.54456075  0.84129196  0.12513798     0.15400
H3065       H  0.43818153  0.84153915  0.06719583     0.15400
C3066       C  0.43667481  0.88025403  0.12483960    -0.23600
H3067       H  0.55009867  0.77820116  0.09691567     0.05600
H3068       H  0.56464263  0.80946176  0.06713320     0.08800
H3069       H  0.53650479  0.77538405  0.05423280     0.08800
H3070       H  0.42777468  0.90000393  0.10660530     0.08800
H3071       H  0.44269834  0.89406863  0.14892008     0.08800
H3072       H  0.41717118  0.86120986  0.12967393     0.05600
C3073       C  0.56015813  0.76877911  0.90841282    -0.20200
C3074       C  0.58674670  0.75544458  0.92631847    -0.06800
C3075       C  0.59077240  0.76444306  0.96076531     0.14100
C3076       C  0.56531736  0.78094649  0.97789091    -0.20300
C3077       C  0.53598003  0.78757591  0.96114241    -0.06800
C3078       C  0.53405998  0.78389609  0.92570057     0.14100
C3079       C  0.50425421  0.79495713  0.90650878    -0.23600
H3080       H  0.55879590  0.76479921  0.88130893     0.15400
H3081       H  0.56719867  0.78500535  0.00498997     0.15400
C3082       C  0.62113474  0.75467854  0.97961542    -0.23600
H3083       H  0.50735958  0.79178818  0.87876448     0.05600
H3084       H  0.49885240  0.82329987  0.91224512     0.08800
H3085       H  0.48351097  0.77867242  0.91380425     0.08800
H3086       H  0.64207631  0.76666564  0.96722797     0.08800
H3087       H  0.62432308  0.72546752  0.97947867     0.08800
H3088       H  0.62065516  0.76439169  0.00631809     0.05600
C3089       C  0.66881323  0.47905123  0.13601895    -0.20200
C3090       C  0.65044864  0.50037549  0.11434421    -0.06800
C3091       C  0.61667029  0.49908928  0.11595097     0.14100
C3092       C  0.60297156  0.46852675  0.12797305    -0.20300
C3093       C  0.62246439  0.44221700  0.14241355    -0.06800
C3094       C  0.65471728  0.44993283  0.15085124     0.14100
C3095       C  0.67513307  0.42658908  0.17283118    -0.23600
H3096       H  0.69466781  0.48202735  0.13785483     0.15400
H3097       H  0.57745291  0.46429028  0.12399349     0.15400
C3098       C  0.59494921  0.52797487  0.10290620    -0.23600
H3099       H  0.68435516  0.44234058  0.19486381     0.05600
H3100       H  0.69585958  0.41642827  0.15814390     0.08800
H3101       H  0.66150239  0.40398321  0.18263808     0.08800
H3102       H  0.58116303  0.51812246  0.08043416     0.08800
H3103       H  0.60864197  0.55185766  0.09620168     0.08800
H3104       H  0.57782206  0.53620378  0.12296486     0.05600
C3105       C  0.76146439  0.53616357  0.08022929    -0.20200
C3106       C  0.74642697  0.52642903  0.04952439    -0.06800
C3107       C  0.76315866  0.53015013  0.01877258     0.14100
C3108       C  0.79224032  0.54844087  0.01927142    -0.20300
C3109       C  0.80486989  0.56183539  0.04973307    -0.06800
C3110       C  0.79057327  0.55381327  0.08072625     0.14100
C3111       C  0.80562947  0.56441993  0.11436835    -0.23600
H3112       H  0.74957452  0.53210052  0.10401105     0.15400
H3113       H  0.80479840  0.55296117  0.99594176     0.15400
C3114       C  0.75100862  0.51470290  0.98560163    -0.23600
H3115       H  0.79063075  0.55664075  0.13594941     0.05600
H3116       H  0.80870717  0.59348014  0.11596226     0.08800
H3117       H  0.82943657  0.55133557  0.11735392     0.08800
H3118       H  0.73068555  0.53071301  0.97560477     0.08800
H3119       H  0.74339937  0.48690362  0.98895306     0.08800
H3120       H  0.77016878  0.51422880  0.96634937     0.05600
C3121       C  0.60824373  0.54895590  0.95125434    -0.20200
C3122       C  0.61824344  0.58390631  0.94638034    -0.06800
C3123       C  0.63830375  0.60104174  0.97088307     0.14100
C3124       C  0.64951872  0.58189760  0.99812047    -0.20300
C3125       C  0.64226301  0.54617060  0.00100984    -0.06800
C3126       C  0.62073402  0.52941992  0.97816983     0.14100
C3127       C  0.61233052  0.49082298  0.98019288    -0.23600
H3128       H  0.59298393  0.53601854  0.93237460     0.15400
H3129       H  0.66569128  0.59435784  0.01648088     0.15400
C3130       C  0.64996687  0.63861761  0.96787123    -0.23600
H3131       H  0.58590786  0.48809989  0.98239158     0.05600
H3132       H  0.62383988  0.47783503  0.00216499     0.08800
H3133       H  0.62029317  0.47661346  0.95684902     0.08800
H3134       H  0.62973063  0.65750104  0.97125158     0.08800
H3135       H  0.66118781  0.64223518  0.94300993     0.08800
H3136       H  0.66822650  0.64562375  0.98758297     0.05600
C3137       C  0.61372839  0.53598290  0.26761970    -0.20200
C3138       C  0.62466271  0.52632951  0.29972578    -0.06800
C3139       C  0.61739238  0.49217100  0.31144734     0.14100
C3140       C  0.59305242  0.47276726  0.29519008    -0.20300
C3141       C  0.57679244  0.48678956  0.26729758    -0.06800
C3142       C  0.59064892  0.51569913  0.25044072     0.14100
C3143       C  0.58006825  0.52790929  0.21593167    -0.23600
H3144       H  0.61981464  0.56154547  0.25770587     0.15400
H3145       H  0.58391502  0.44949140  0.30729745     0.15400
C3146       C  0.62908047  0.47982533  0.34530126    -0.23600
H3147       H  0.60149649  0.53127639  0.19991126     0.05600
H3148       H  0.56719961  0.55373192  0.21833573     0.08800
H3149       H  0.56451258  0.50858718  0.20234978     0.08800
H3150       H  0.60938454  0.48187154  0.36390637     0.08800
H3151       H  0.64992557  0.49527618  0.35496640     0.08800
H3152       H  0.63609083  0.45182058  0.34291583     0.05600
C3153       C  0.73868972  0.71646924  0.27560056    -0.20200
C3154       C  0.71585790  0.73995649  0.26251518    -0.06800
C3155       C  0.68319284  0.73804000  0.27245169     0.14100
C3156       C  0.67486942  0.71378188  0.29653683    -0.20300
C3157       C  0.69781720  0.69119158  0.31042157    -0.06800
C3158       C  0.73003202  0.69187179  0.29953664     0.14100
C3159       C  0.75557876  0.66693561  0.31198253    -0.23600
H3160       H  0.76335557  0.71736317  0.26714400     0.15400
H3161       H  0.65009570  0.71210219  0.30455978     0.15400
C3162       C  0.65638396  0.76000852  0.25709699    -0.23600
H3163       H  0.76477370  0.65047019  0.29053714     0.05600
H3164       H  0.74624416  0.64915794  0.33109159     0.08800
H3165       H  0.77577325  0.68225288  0.32342120     0.08800
H3166       H  0.65660916  0.75717675  0.22909617     0.08800
H3167       H  0.65889584  0.78821415  0.26499265     0.08800
H3168       H  0.63233043  0.75159316  0.26555496     0.05600
C3169       C  0.75699243  0.72130601  0.14692434    -0.20200
C3170       C  0.76118308  0.75778273  0.15263595    -0.06800
C3171       C  0.78739563  0.77465113  0.13763705     0.14100
C3172       C  0.81014731  0.75393845  0.11954556    -0.20300
C3173       C  0.80783606  0.71670618  0.11756713    -0.06800
C3174       C  0.78046229  0.70037596  0.13105781     0.14100
C3175       C  0.77733073  0.66062135  0.13233315    -0.23600
H3176       H  0.73677265  0.70844248  0.15838909     0.15400
H3177       H  0.83117941  0.76642036  0.10941153     0.15400
C3178       C  0.79269050  0.81377929  0.14292902    -0.23600
H3179       H  0.75579819  0.65266099  0.14651125     0.05600
H3180       H  0.79871569  0.64921868  0.14531940     0.08800
H3181       H  0.77488052  0.64894796  0.10652648     0.08800
H3182       H  0.79577083  0.82011846  0.17032504     0.08800
H3183       H  0.77165323  0.82870222  0.13293654     0.08800
H3184       H  0.81446243  0.82273855  0.12973668     0.05600
C3185       C  0.67679165  0.85848064  0.23984898    -0.20200
C3186       C  0.68197085  0.84057559  0.20869309    -0.06800
C3187       C  0.65537253  0.83495277  0.18671610     0.14100
C3188       C  0.62483216  0.84765794  0.19621259    -0.20300
C3189       C  0.61939589  0.86337411  0.22844877    -0.06800
C3190       C  0.64584637  0.86714066  0.25093321     0.14100
C3191       C  0.64196248  0.87941670  0.28716652    -0.23600
H3192       H  0.69669522  0.86145375  0.25767246     0.15400
H3193       H  0.60522487  0.84581053  0.17800312     0.15400
C3194       C  0.65865060  0.81400638  0.15407365    -0.23600
H3195       H  0.65276111  0.85949613  0.30425389     0.05600
H3196       H  0.61635752  0.88264171  0.29415755     0.08800
H3197       H  0.65441330  0.90496449  0.29141499     0.08800
H3198       H  0.66589507  0.78630229  0.15944556     0.08800
H3199       H  0.67711375  0.82619398  0.13821498     0.08800
H3200       H  0.63570053  0.81313809  0.13943155     0.05600
C3201       C  0.34837027  0.48262055  0.87154249    -0.20200
C3202       C  0.34975670  0.47005654  0.90477613    -0.06800
C3203       C  0.37155540  0.48543422  0.92851945     0.14100
C3204       C  0.38828012  0.51557237  0.91950831    -0.20300
C3205       C  0.38286279  0.53086469  0.88809716    -0.06800
C3206       C  0.36394834  0.51369125  0.86318899     0.14100
C3207       C  0.35858750  0.52938222  0.82883941    -0.23600
H3208       H  0.33232269  0.47023065  0.85310209     0.15400
H3209       H  0.40364854  0.52902956  0.93796382     0.15400
C3210       C  0.37536696  0.47262784  0.96414669    -0.23600
H3211       H  0.34247680  0.51271597  0.81264994     0.05600
H3212       H  0.38187274  0.53175316  0.81577782     0.08800
H3213       H  0.34736647  0.55606285  0.83157057     0.08800
H3214       H  0.38302984  0.44438611  0.96362272     0.08800
H3215       H  0.35235915  0.47595953  0.97777576     0.08800
H3216       H  0.39387140  0.48782506  0.97868345     0.05600
C3217       C  0.20684445  0.44509179  0.91792068    -0.20200
C3218       C  0.23423406  0.45627043  0.90094089    -0.06800
C3219       C  0.23038138  0.47508235  0.87030319     0.14100
C3220       C  0.19957177  0.47899977  0.85644709    -0.20300
C3221       C  0.17310027  0.46362517  0.87152110    -0.06800
C3222       C  0.17646217  0.44726344  0.90309005     0.14100
C3223       C  0.14893286  0.42890527  0.91976896    -0.23600
H3224       H  0.20924870  0.43233048  0.94202374     0.15400
H3225       H  0.19632936  0.49132945  0.83211747     0.15400
C3226       C  0.25798672  0.48961275  0.85067132    -0.23600
H3227       H  0.15673419  0.41544917  0.94321322     0.05600
H3228       H  0.13865277  0.40840146  0.90231131     0.08800
H3229       H  0.13005568  0.44843961  0.92693982     0.08800
H3230       H  0.27393185  0.46760294  0.84200810     0.08800
H3231       H  0.27155110  0.50909908  0.86656349     0.08800
H3232       H  0.24964647  0.50362465  0.82772243     0.05600
C3233       C  0.32419565  0.39939238  0.00808127    -0.20200
C3234       C  0.29793402  0.39328542  0.98623172    -0.06800
C3235       C  0.27347723  0.36972039  0.99600982     0.14100
C3236       C  0.27541684  0.35444639  0.02796358    -0.20300
C3237       C  0.30134872  0.36151001  0.04979684    -0.06800
C3238       C  0.32651897  0.38357070  0.03942077     0.14100
C3239       C  0.35624595  0.39132828  0.06058879    -0.23600
H3240       H  0.34314750  0.41707823  0.00102153     0.15400
H3241       H  0.25677597  0.33672149  0.03596483     0.15400
C3242       C  0.24577064  0.35958610  0.97296145    -0.23600
H3243       H  0.37795615  0.38404178  0.04588567     0.05600
H3244       H  0.35754650  0.37663005  0.08443081     0.08800
H3245       H  0.35706704  0.42010166  0.06701967     0.08800
H3246       H  0.25490809  0.35021936  0.94804360     0.08800
H3247       H  0.22931983  0.38248926  0.96973703     0.08800
H3248       H  0.23137421  0.33790461  0.98350542     0.05600
C3249       C  0.49722147  0.44728496  0.82096609    -0.20200
C3250       C  0.50446725  0.43519187  0.78817007    -0.06800
C3251       C  0.52117021  0.40285336  0.78392656     0.14100
C3252       C  0.53741489  0.38880001  0.81203683    -0.20300
C3253       C  0.53923753  0.40903893  0.84233729    -0.06800
C3254       C  0.51627850  0.43624341  0.84814970     0.14100
C3255       C  0.51487341  0.45694980  0.88117879    -0.23600
H3256       H  0.48247704  0.47093987  0.82406085     0.15400
H3257       H  0.55385673  0.36665562  0.80835938     0.15400
C3258       C  0.52607747  0.38669316  0.74924672    -0.23600
H3259       H  0.49657208  0.47853858  0.88035768     0.05600
H3260       H  0.53849344  0.46923473  0.88703617     0.08800
H3261       H  0.50832778  0.43915989  0.90186077     0.08800
H3262       H  0.50238242  0.38051439  0.73743650     0.08800
H3263       H  0.54043339  0.36178310  0.75032952     0.08800
H3264       H  0.53895195  0.40545911  0.73311332     0.05600
C3265       C  0.53187928  0.58530843  0.76868260    -0.20200
C3266       C  0.54464382  0.55230072  0.77742104    -0.06800
C3267       C  0.55697460  0.54871069  0.81082914     0.14100
C3268       C  0.54588122  0.57191184  0.83645197    -0.20300
C3269       C  0.52486794  0.59977439  0.82837005    -0.06800
C3270       C  0.52131627  0.60907126  0.79399490     0.14100
C3271       C  0.50308724  0.64169615  0.78362927    -0.23600
H3272       H  0.52506545  0.59000410  0.74261750     0.15400
H3273       H  0.55069742  0.56594476  0.86272825     0.15400
C3274       C  0.57905165  0.51878076  0.82034855    -0.23600
H3275       H  0.50300583  0.64442171  0.75574940     0.05600
H3276       H  0.51471299  0.66560436  0.79486720     0.08800
H3277       H  0.47777845  0.64034225  0.79197186     0.08800
H3278       H  0.58781230  0.50429342  0.79752179     0.08800
H3279       H  0.56641892  0.50030827  0.83697790     0.08800
H3280       H  0.60037704  0.52939749  0.83407752     0.05600
C3281       C  0.45758694  0.53942213  0.68773513    -0.20200
C3282       C  0.47000174  0.50479744  0.69111267    -0.06800
C3283       C  0.45634587  0.47686864  0.67135510     0.14100
C3284       C  0.42964321  0.48395353  0.65068839    -0.20300
C3285       C  0.41678622  0.51835621  0.64791355    -0.06800
C3286       C  0.43071821  0.54626919  0.66692555     0.14100
C3287       C  0.41604808  0.58273753  0.66660263    -0.23600
H3288       H  0.46757334  0.56090291  0.70304638     0.15400
H3289       H  0.41798132  0.46209051  0.63738782     0.15400
C3290       C  0.46958238  0.43948324  0.67152979    -0.23600
H3291       H  0.43019236  0.60186729  0.68231523     0.05600
H3292       H  0.39135070  0.58245530  0.67668598     0.08800
H3293       H  0.41461471  0.59168367  0.64023818     0.08800
H3294       H  0.46478712  0.42690850  0.69598289     0.08800
H3295       H  0.49582788  0.43969156  0.66682703     0.08800
H3296       H  0.45820646  0.42254028  0.65148532     0.05600
C3297       C  0.55431519  0.32393582  0.02532890    -0.20200
C3298       C  0.56578199  0.29292312  0.00886531    -0.06800
C3299       C  0.59539418  0.29341893  0.99234382     0.14100
C3300       C  0.61054125  0.32575900  0.98826400    -0.20300
C3301       C  0.59580185  0.35767083  0.99883927    -0.06800
C3302       C  0.56900662  0.35666178  0.02015929     0.14100
C3303       C  0.55384801  0.38987749  0.03462416    -0.23600
H3304       H  0.53191588  0.32343427  0.03900193     0.15400
H3305       H  0.63175188  0.32650545  0.97270539     0.15400
C3306       C  0.61037223  0.26032637  0.97746531    -0.23600
H3307       H  0.55284700  0.38813837  0.06258073     0.05600
H3308       H  0.52905318  0.39289570  0.02430580     0.08800
H3309       H  0.56772666  0.41384220  0.02857770     0.08800
H3310       H  0.59422397  0.24672663  0.95914599     0.08800
H3311       H  0.61689022  0.24198770  0.99804376     0.08800
H3312       H  0.63194435  0.26689619  0.96298915     0.05600
C3313       C  0.45033694  0.26252837  0.02934286    -0.20200
C3314       C  0.47111625  0.23638690  0.04172933    -0.06800
C3315       C  0.46402099  0.21829301  0.07099678     0.14100
C3316       C  0.43487766  0.22586227  0.08686467    -0.20300
C3317       C  0.41444269  0.25327093  0.07549412    -0.06800
C3318       C  0.42270833  0.27237802  0.04657344     0.14100
C3319       C  0.40504414  0.30545413  0.03566905    -0.23600
H3320       H  0.45690442  0.27676881  0.00695660     0.15400
H3321       H  0.42968381  0.21319049  0.11029045     0.15400
C3322       C  0.48808613  0.19314687  0.08625951    -0.23600
H3323       H  0.41802238  0.31930092  0.01554925     0.05600
H3324       H  0.40272792  0.32434755  0.05742290     0.08800
H3325       H  0.38105909  0.29889002  0.02508311     0.08800
H3326       H  0.51124440  0.20696300  0.09079069     0.08800
H3327       H  0.49202298  0.17014128  0.06878149     0.08800
H3328       H  0.48006905  0.18356664  0.11096985     0.05600
C3329       C  0.46552253  0.22026454  0.92926407    -0.20200
C3330       C  0.49922058  0.22116634  0.93125243    -0.06800
C3331       C  0.51724872  0.21256247  0.90223645     0.14100
C3332       C  0.50098405  0.20055278  0.87271449    -0.20300
C3333       C  0.46752250  0.19516717  0.87261911    -0.06800
C3334       C  0.44955416  0.20564003  0.90131142     0.14100
C3335       C  0.41404010  0.19820851  0.90446727    -0.23600
H3336       H  0.45146985  0.22842061  0.95102838     0.15400
H3337       H  0.51464534  0.19225557  0.85072590     0.15400
C3338       C  0.55333622  0.21383776  0.90294809    -0.23600
H3339       H  0.40500298  0.20537033  0.93004912     0.05600
H3340       H  0.40940449  0.16956099  0.90015983     0.08800
H3341       H  0.39974441  0.21386527  0.88628537     0.08800
H3342       H  0.56307189  0.19576526  0.92243307     0.08800
H3343       H  0.56129204  0.24130766  0.90862994     0.08800
H3344       H  0.56339605  0.20575098  0.87815770     0.05600
C3345       C  0.32411715  0.24226457  0.71965578    -0.20200
C3346       C  0.29282447  0.24335426  0.73269791    -0.06800
C3347       C  0.28326919  0.21714764  0.75526580     0.14100
C3348       C  0.30603451  0.19210069  0.76609493    -0.20300
C3349       C  0.33797112  0.19275287  0.75493567    -0.06800
C3350       C  0.34680226  0.21717900  0.73042268     0.14100
C3351       C  0.37997082  0.21679054  0.71560925    -0.23600
H3352       H  0.33120575  0.26209833  0.70187289     0.15400
H3353       H  0.29929932  0.17278948  0.78453915     0.15400
C3354       C  0.24990759  0.21676816  0.76961494    -0.23600
H3355       H  0.38260553  0.23767159  0.69657927     0.05600
H3356       H  0.38455131  0.19065159  0.70313794     0.08800
H3357       H  0.39850035  0.22161377  0.73547688     0.08800
H3358       H  0.23198864  0.21287612  0.74886016     0.08800
H3359       H  0.24486803  0.24218642  0.78328647     0.08800
H3360       H  0.24698348  0.19495197  0.78766826     0.05600
C3361       C  0.31622922  0.37202256  0.70522306    -0.20200
C3362       C  0.28826815  0.37198397  0.72438766    -0.06800
C3363       C  0.27001837  0.40360236  0.72811318     0.14100
C3364       C  0.27472397  0.43082181  0.70553230    -0.20300
C3365       C  0.29889600  0.42763339  0.68157101    -0.06800
C3366       C  0.32205211  0.39994291  0.68376922     0.14100
C3367       C  0.35183159  0.39774142  0.66241165    -0.23600
H3368       H  0.33131491  0.34848242  0.70353955     0.15400
H3369       H  0.25850608  0.45346530  0.70536220     0.15400
C3370       C  0.24376775  0.40769864  0.75368081    -0.23600
H3371       H  0.37329821  0.39464602  0.67908966     0.05600
H3372       H  0.35565273  0.42170623  0.64743645     0.08800
H3373       H  0.35032317  0.37442334  0.64485097     0.08800
H3374       H  0.24319053  0.38477260  0.77072284     0.08800
H3375       H  0.22016560  0.41031586  0.74049816     0.08800
H3376       H  0.24804715  0.43182921  0.76962736     0.05600
C3377       C  0.15437145  0.35933302  0.70240200    -0.20200
C3378       C  0.14049692  0.35131911  0.73326770    -0.06800
C3379       C  0.14693612  0.31804247  0.74773620     0.14100
C3380       C  0.17164404  0.29653995  0.73465773    -0.20300
C3381       C  0.19042593  0.30868962  0.70841054    -0.06800
C3382       C  0.17884721  0.33751426  0.68916002     0.14100
C3383       C  0.19483688  0.34734032  0.65670970    -0.23600
H3384       H  0.14808078  0.38396580  0.69029061     0.15400
H3385       H  0.17971379  0.27367449  0.74864880     0.15400
C3386       C  0.12979911  0.30683886  0.77883284    -0.23600
H3387       H  0.18300599  0.37071963  0.64525630     0.05600
H3388       H  0.19334006  0.32470620  0.63839321     0.08800
H3389       H  0.22046450  0.35403540  0.66092723     0.08800
H3390       H  0.13450275  0.32562380  0.80024479     0.08800
H3391       H  0.13762615  0.28003255  0.78667633     0.08800
H3392       H  0.10370371  0.30638008  0.77325279     0.05600
C3393       C  0.42496236  0.77746113  0.51216917    -0.20200
C3394       C  0.44300357  0.74679805  0.51852128    -0.06800
C3395       C  0.43703938  0.72686810  0.54723138     0.14100
C3396       C  0.41363864  0.73855646  0.56995296    -0.20300
C3397       C  0.39789970  0.77102046  0.56545394    -0.06800
C3398       C  0.40271963  0.79031377  0.53580498     0.14100
C3399       C  0.38677929  0.82583554  0.53064623    -0.23600
H3400       H  0.43041145  0.79298708  0.49027845     0.15400
H3401       H  0.41033457  0.72456660  0.59328672     0.15400
C3402       C  0.45789210  0.69566816  0.55579292    -0.23600
H3403       H  0.36030477  0.82296348  0.52979515     0.05600
H3404       H  0.39415627  0.83772810  0.50655755     0.08800
H3405       H  0.39346697  0.84445613  0.55163873     0.08800
H3406       H  0.48353945  0.70350571  0.55692954     0.08800
H3407       H  0.45459887  0.67413281  0.53651249     0.08800
H3408       H  0.45181065  0.68599130  0.58097422     0.05600
C3409       C  0.27121173  0.91176087  0.61506228    -0.20200
C3410       C  0.24030638  0.91848309  0.62730509    -0.06800
C3411       C  0.22390844  0.89099845  0.64342639     0.14100
C3412       C  0.23683108  0.85673121  0.64276071    -0.20300
C3413       C  0.26810389  0.85000751  0.63139396    -0.06800
C3414       C  0.28571463  0.87840454  0.61747947     0.14100
C3415       C  0.31991946  0.87476963  0.60534583    -0.23600
H3416       H  0.28389275  0.93242948  0.60235314     0.15400
H3417       H  0.22368432  0.83575635  0.65451238     0.15400
C3418       C  0.19379036  0.89729506  0.66341133    -0.23600
H3419       H  0.32964008  0.90036690  0.59690385     0.05600
H3420       H  0.32102648  0.85620414  0.58333115     0.08800
H3421       H  0.33606020  0.86567194  0.62584600     0.08800
H3422       H  0.17351729  0.88225374  0.65182198     0.08800
H3423       H  0.18738737  0.92573034  0.66553408     0.08800
H3424       H  0.19786700  0.88817353  0.68960095     0.05600
C3425       C  0.27315382  0.00515990  0.54375005    -0.20200
C3426       C  0.24467523  0.02016188  0.55660955    -0.06800
C3427       C  0.23796832  0.05630916  0.55143467     0.14100
C3428       C  0.25871521  0.07579379  0.53124238    -0.20300
C3429       C  0.28537081  0.05959671  0.51548021    -0.06800
C3430       C  0.29370438  0.02448691  0.52359579     0.14100
C3431       C  0.32471411  0.00765008  0.51185897    -0.23600
H3432       H  0.27913399  0.97780747  0.54902338     0.15400
H3433       H  0.25384477  0.10354228  0.52753036     0.15400
C3434       C  0.20954381  0.07441474  0.56770936    -0.23600
H3435       H  0.32832188  0.98083558  0.52233579     0.05600
H3436       H  0.34526364  0.02431780  0.52037449     0.08800
H3437       H  0.32476870  0.00482484  0.48396944     0.08800
H3438       H  0.21129271  0.07191642  0.59559320     0.08800
H3439       H  0.18692950  0.06206614  0.55833070     0.08800
H3440       H  0.20845998  0.10306456  0.56191603     0.05600
C3441       C  0.13872071  0.91452925  0.58214786    -0.20200
C3442       C  0.14901948  0.94524364  0.56560775    -0.06800
C3443       C  0.14154681  0.94822274  0.53079754     0.14100
C3444       C  0.12971409  0.91831662  0.51313151    -0.20300
C3445       C  0.12791872  0.88519355  0.52877661    -0.06800
C3446       C  0.13146436  0.88354048  0.56395628     0.14100
C3447       C  0.13107207  0.84924826  0.58262381    -0.23600
H3448       H  0.14223213  0.91232864  0.60916842     0.15400
H3449       H  0.12501479  0.91977129  0.48616647     0.15400
C3450       C  0.14815259  0.98120918  0.51136364    -0.23600
H3451       H  0.15446166  0.84536595  0.59593802     0.05600
H3452       H  0.12724483  0.82598797  0.56554251     0.08800
H3453       H  0.11170409  0.85009317  0.60154811     0.08800
H3454       H  0.17434484  0.98413421  0.50754889     0.08800
H3455       H  0.13836131  0.00482593  0.52508394     0.08800
H3456       H  0.13664446  0.98008223  0.48586664     0.05600
C3457       C  0.56896960  0.84060092  0.52035194    -0.20200
C3458       C  0.58609080  0.84683718  0.49098786    -0.06800
C3459       C  0.58995704  0.81934338  0.46637224     0.14100
C3460       C  0.57273925  0.78815236  0.46945005    -0.20300
C3461       C  0.55162690  0.78377210  0.49629264    -0.06800
C3462       C  0.55202954  0.80891467  0.52372544     0.14100
C3463       C  0.53480630  0.80302755  0.55644985    -0.23600
H3464       H  0.56759571  0.86120675  0.53983541     0.15400
H3465       H  0.57397769  0.76837915  0.44921685     0.15400
C3466       C  0.61096846  0.82327037  0.43582896    -0.23600
H3467       H  0.54209662  0.82275609  0.57630980     0.05600
H3468       H  0.54088381  0.77632150  0.56600308     0.08800
H3469       H  0.50844875  0.80585057  0.55293894     0.08800
H3470       H  0.63611939  0.82801262  0.44409157     0.08800
H3471       H  0.60240150  0.84545349  0.42009300     0.08800
H3472       H  0.61099664  0.79899913  0.41942611     0.05600
C3473       C  0.49797718  0.98957621  0.35792012    -0.20200
C3474       C  0.49553838  0.97617776  0.32462269    -0.06800
C3475       C  0.52134117  0.95678323  0.31048391     0.14100
C3476       C  0.54848899  0.94997763  0.33057903    -0.20300
C3477       C  0.55106745  0.96329429  0.36390053    -0.06800
C3478       C  0.52563714  0.98388179  0.37763018     0.14100
C3479       C  0.52639476  0.99922491  0.41314172    -0.23600
H3480       H  0.47795334  0.00428131  0.36877029     0.15400
H3481       H  0.56731855  0.93281670  0.32082987     0.15400
C3482       C  0.51956238  0.94122704  0.27512700    -0.23600
H3483       H  0.52090843  0.02799815  0.41256407     0.05600
H3484       H  0.55007219  0.99599511  0.42589550     0.08800
H3485       H  0.50784867  0.98625142  0.42840649     0.08800
H3486       H  0.51793894  0.96270922  0.25646773     0.08800
H3487       H  0.49834106  0.92376053  0.27238530     0.08800
H3488       H  0.54114588  0.92502890  0.26927577     0.05600
C3489       C  0.40551159  0.96023848  0.17747430    -0.20200
C3490       C  0.38990881  0.99055678  0.16530500    -0.06800
C3491       C  0.39609585  0.02399065  0.18034452     0.14100
C3492       C  0.41537759  0.02564849  0.20977968    -0.20300
C3493       C  0.42916220  0.99468437  0.22303410    -0.06800
C3494       C  0.42553487  0.96197133  0.20572023     0.14100
C3495       C  0.44041335  0.92823096  0.21898330    -0.23600
H3496       H  0.40129058  0.93484136  0.16498148     0.15400
H3497       H  0.41764728  0.05049584  0.22384704     0.15400
C3498       C  0.38162405  0.05720556  0.16605890    -0.23600
H3499       H  0.43281272  0.90453125  0.20401741     0.05600
H3500       H  0.43310842  0.92378851  0.24539344     0.08800
H3501       H  0.46697627  0.93006598  0.21811782     0.08800
H3502       H  0.35501009  0.05546014  0.16594299     0.08800
H3503       H  0.38992132  0.06050219  0.13976017     0.08800
H3504       H  0.38875278  0.08110538  0.18115432     0.05600
C3505       C  0.38194553  0.96421297  0.36126067    -0.20200
C3506       C  0.37845707  0.96493134  0.32605287    -0.06800
C3507       C  0.34959925  0.97923521  0.31244981     0.14100
C3508       C  0.33349399  0.00513074  0.33159655    -0.20300
C3509       C  0.34461329  0.01337456  0.36427139    -0.06800
C3510       C  0.36619597  0.99010599  0.38072130     0.14100
C3511       C  0.37559053  0.99549273  0.41738051    -0.23600
H3512       H  0.40187015  0.94970907  0.37242372     0.15400
H3513       H  0.31498747  0.02133432  0.31992679     0.15400
C3514       C  0.33839070  0.97169572  0.27666466    -0.23600
H3515       H  0.39343001  0.97534611  0.42574930     0.05600
H3516       H  0.35398548  0.99323158  0.43323794     0.08800
H3517       H  0.38633496  0.02207024  0.42153607     0.08800
H3518       H  0.35332133  0.95096118  0.26407124     0.08800
H3519       H  0.33933710  0.99623268  0.26174744     0.08800
H3520       H  0.31325704  0.96209830  0.27677499     0.05600
C3521       C  0.53251664  0.68268909  0.40983620    -0.20200
C3522       C  0.50347629  0.68646285  0.42788452    -0.06800
C3523       C  0.47582785  0.66815629  0.41541636     0.14100
C3524       C  0.47782163  0.64873806  0.38513572    -0.20300
C3525       C  0.50632398  0.64610515  0.36674242    -0.06800
C3526       C  0.53422165  0.66253728  0.37949902     0.14100
C3527       C  0.56545638  0.65903297  0.36093857    -0.23600
H3528       H  0.55398938  0.69587556  0.41915066     0.15400
H3529       H  0.45685558  0.63470057  0.37562344     0.15400
C3530       C  0.44376666  0.66839059  0.43299230    -0.23600
H3531       H  0.58518026  0.67341124  0.37436712     0.05600
H3532       H  0.56261322  0.67002585  0.33526606     0.08800
H3533       H  0.57247784  0.63067320  0.35857725     0.08800
H3534       H  0.43333119  0.69555693  0.43358240     0.08800
H3535       H  0.44669734  0.65818415  0.45896842     0.08800
H3536       H  0.42591272  0.65113673  0.41974812     0.05600
C3537       C  0.24628000  0.84207787  0.35687338    -0.20200
C3538       C  0.25993788  0.80785991  0.35388965    -0.06800
C3539       C  0.24403067  0.77895454  0.36855182     0.14100
C3540       C  0.21430386  0.78507907  0.38390115    -0.20300
C3541       C  0.19995906  0.81874984  0.38405607    -0.06800
C3542       C  0.21611537  0.84771462  0.37076810     0.14100
C3543       C  0.20187999  0.88460245  0.36988512    -0.23600
H3544       H  0.25839373  0.86467252  0.34661082     0.15400
H3545       H  0.20141080  0.76322432  0.39456929     0.15400
C3546       C  0.25696850  0.74150635  0.36714505    -0.23600
H3547       H  0.21777218  0.90321398  0.38421167     0.05600
H3548       H  0.17759288  0.88650802  0.38096539     0.08800
H3549       H  0.19994260  0.89317277  0.34325734     0.08800
H3550       H  0.28090832  0.74034502  0.37980259     0.08800
H3551       H  0.25874110  0.73203579  0.34045871     0.08800
H3552       H  0.24107559  0.72290347  0.38026798     0.05600
C3553       C  0.35718805  0.71806847  0.32751323    -0.20200
C3554       C  0.34570582  0.73637675  0.29953238    -0.06800
C3555       C  0.35155286  0.72298649  0.26624870     0.14100
C3556       C  0.37140851  0.69330882  0.26199388    -0.20300
C3557       C  0.38391152  0.67601283  0.29002916    -0.06800
C3558       C  0.37605576  0.68768721  0.32313287     0.14100
C3559       C  0.38773595  0.66819408  0.35381880    -0.23600
H3560       H  0.35197405  0.72799577  0.35280633     0.15400
H3561       H  0.37663500  0.68295804  0.23684970     0.15400
C3562       C  0.33582372  0.73845350  0.23517318    -0.23600
H3563       H  0.37886923  0.68068661  0.37765779     0.05600
H3564       H  0.41432348  0.66846391  0.35474936     0.08800
H3565       H  0.37923800  0.64039970  0.35261935     0.08800
H3566       H  0.34582309  0.76485908  0.22996424     0.08800
H3567       H  0.30944003  0.74060014  0.23873976     0.08800
H3568       H  0.33996713  0.72151765  0.21228210     0.05600
C3569       C  0.28822194  0.83466052  0.23185412    -0.20200
C3570       C  0.31294405  0.84512526  0.25407021    -0.06800
C3571       C  0.33807980  0.86624895  0.24316428     0.14100
C3572       C  0.33736096  0.87759157  0.20989062    -0.20300
C3573       C  0.31253193  0.86713769  0.18729334    -0.06800
C3574       C  0.28799338  0.84470054  0.19826344     0.14100
C3575       C  0.26239777  0.82907862  0.17537752    -0.23600
H3576       H  0.26999375  0.81658910  0.24029984     0.15400
H3577       H  0.35668522  0.89399871  0.20111848     0.15400
C3578       C  0.36582916  0.87582912  0.26634252    -0.23600
H3579       H  0.23860620  0.83270749  0.18721494     0.05600
H3580       H  0.26662786  0.80012095  0.17227948     0.08800
H3581       H  0.26173608  0.84094780  0.15006008     0.08800
H3582       H  0.38322935  0.89309752  0.25376283     0.08800
H3583       H  0.37877430  0.85145931  0.27417808     0.08800
H3584       H  0.35676348  0.89010358  0.28919051     0.05600
C3585       C  0.97064734  0.88793960  0.76850405    -0.20200
C3586       C  0.99616675  0.91070271  0.76229705    -0.06800
C3587       C  0.01406088  0.90599994  0.73265944     0.14100
C3588       C  0.00363367  0.88113760  0.70830982    -0.20300
C3589       C  0.97310936  0.86606142  0.71058512    -0.06800
C3590       C  0.95690846  0.86805159  0.74196807     0.14100
C3591       C  0.92313779  0.85469862  0.74658906    -0.23600
H3592       H  0.95748178  0.89152521  0.79184669     0.15400
H3593       H  0.01543765  0.87995240  0.68430142     0.15400
C3594       C  0.03982773  0.93164678  0.72356986    -0.23600
H3595       H  0.91301625  0.86355192  0.77124019     0.05600
H3596       H  0.92291170  0.82541320  0.74636929     0.08800
H3597       H  0.90685775  0.86502970  0.72658866     0.08800
H3598       H  0.06043823  0.92946667  0.74147699     0.08800
H3599       H  0.03029511  0.95919911  0.72410990     0.08800
H3600       H  0.04793963  0.92661883  0.69745848     0.05600
C3601       C  0.03638809  0.01442363  0.85746429    -0.20200
C3602       C  0.04220194  0.01278332  0.82270786    -0.06800
C3603       C  0.07404270  0.00970615  0.81129604     0.14100
C3604       C  0.09820070  0.00029255  0.83434498    -0.20300
C3605       C  0.09012026  0.99191213  0.86756297    -0.06800
C3606       C  0.05951618  0.00161513  0.87999236     0.14100
C3607       C  0.04888267  0.99352141  0.91525255    -0.23600
H3608       H  0.01200094  0.01803419  0.86630638     0.15400
H3609       H  0.12193395  0.99377169  0.82494296     0.15400
C3610       C  0.08216303  0.01215291  0.77448899    -0.23600
H3611       H  0.04125902  0.01842058  0.92842030     0.05600
H3612       H  0.06801329  0.98078345  0.93055982     0.08800
H3613       H  0.02821508  0.97510460  0.91388857     0.08800
H3614       H  0.06089266  0.01971367  0.75893207     0.08800
H3615       H  0.09153984  0.98624476  0.76495124     0.08800
H3616       H  0.10086502  0.03253582  0.77143478     0.05600
C3617       C  0.91269435  0.01993389  0.76511938    -0.20200
C3618       C  0.92836356  0.00883464  0.79459534    -0.06800
C3619       C  0.91392708  0.01374977  0.82629045     0.14100
C3620       C  0.88594525  0.03413957  0.82825310    -0.20300
C3621       C  0.87444288  0.05190328  0.79966706    -0.06800
C3622       C  0.88567307  0.04201159  0.76739959     0.14100
C3623       C  0.87079834  0.05584549  0.73553598    -0.23600
H3624       H  0.92314826  0.01408576  0.74062400     0.15400
H3625       H  0.87655328  0.04130392  0.85292998     0.15400
C3626       C  0.92921576  0.99980302  0.85814112    -0.23600
H3627       H  0.88951788  0.06854890  0.72046651     0.05600
H3628       H  0.85108426  0.07510681  0.74074372     0.08800
H3629       H  0.86077480  0.03340164  0.72029991     0.08800
H3630       H  0.95297524  0.01226757  0.86256663     0.08800
H3631       H  0.93239329  0.97063429  0.85571361     0.08800
H3632       H  0.91424271  0.00569286  0.88065203     0.05600
C3633       C  0.91123154  0.71740853  0.95522161    -0.20200
C3634       C  0.92922134  0.71051142  0.98475784    -0.06800
C3635       C  0.91695741  0.68672763  0.00852986     0.14100
C3636       C  0.89037880  0.66613894  0.99926358    -0.20300
C3637       C  0.87655136  0.66859526  0.96700914    -0.06800
C3638       C  0.88507441  0.69634169  0.94584168     0.14100
C3639       C  0.86891719  0.70110102  0.91187461    -0.23600
H3640       H  0.91939815  0.73712022  0.93786056     0.15400
H3641       H  0.88323317  0.64477462  0.01528582     0.15400
C3642       C  0.93288225  0.68048083  0.04228219    -0.23600
H3643       H  0.87910146  0.72370271  0.89821266     0.05600
H3644       H  0.84293663  0.70642320  0.91537300     0.08800
H3645       H  0.87194420  0.67684897  0.89579505     0.08800
H3646       H  0.93273684  0.70554614  0.05744972     0.08800
H3647       H  0.95786189  0.67069197  0.03873852     0.08800
H3648       H  0.91997662  0.66041177  0.05693168     0.05600
C3649       C  0.02636549  0.80139492  0.04546191    -0.20200
C3650       C  0.01631016  0.76627441  0.04951600    -0.06800
C3651       C  0.00564266  0.75594059  0.08141119     0.14100
C3652       C  0.99756995  0.78220292  0.10536903    -0.20300
C3653       C  0.00072898  0.81825412  0.09792601    -0.06800
C3654       C  0.01830555  0.82774862  0.06934936     0.14100
C3655       C  0.02574961  0.86569102  0.06181498    -0.23600
H3656       H  0.03624858  0.80943968  0.02162791     0.15400
H3657       H  0.98546772  0.77457038  0.12814560     0.15400
C3658       C  0.00090928  0.71770308  0.08980087    -0.23600
H3659       H  0.05205695  0.86853288  0.05860273     0.05600
H3660       H  0.01823765  0.88421648  0.08246594     0.08800
H3661       H  0.01323818  0.87339058  0.03808114     0.08800
H3662       H  0.00741665  0.69948618  0.06852521     0.08800
H3663       H  0.97554648  0.71321229  0.09669831     0.08800
H3664       H  0.01671369  0.71103134  0.11157334     0.05600
C3665       C  0.00945475  0.79985520  0.92997628    -0.20200
C3666       C  0.01962660  0.76445120  0.93055069    -0.06800
C3667       C  0.04799574  0.75394215  0.91413551     0.14100
C3668       C  0.06776143  0.78006240  0.90127116    -0.20300
C3669       C  0.06059879  0.81624333  0.90681385    -0.06800
C3670       C  0.03025550  0.82632644  0.91993774     0.14100
C3671       C  0.02113900  0.86438551  0.92798438    -0.23600
H3672       H  0.98739451  0.80736895  0.94271672     0.15400
H3673       H  0.09080867  0.77233416  0.89079684     0.15400
C3674       C  0.05907099  0.71587167  0.91250510    -0.23600
H3675       H  0.99837252  0.86642338  0.94227504     0.05600
H3676       H  0.01719371  0.87915966  0.90444009     0.08800
H3677       H  0.04012504  0.87726195  0.94380134     0.08800
H3678       H  0.04126553  0.69779754  0.92342489     0.08800
H3679       H  0.08216658  0.71302723  0.92660985     0.08800
H3680       H  0.06270522  0.70753243  0.88571519     0.05600
C3681       C  0.77218657  0.01129727  0.93285840    -0.20200
C3682       C  0.74812985  0.02143473  0.95568636    -0.06800
C3683       C  0.73009148  0.05276025  0.95004118     0.14100
C3684       C  0.73792550  0.07383820  0.92264094    -0.20300
C3685       C  0.76528801  0.06626543  0.90325473    -0.06800
C3686       C  0.78191401  0.03376956  0.90756640     0.14100
C3687       C  0.81194832  0.02391053  0.88837119    -0.23600
H3688       H  0.78527868  0.98668182  0.93647438     0.15400
H3689       H  0.72557785  0.09897763  0.91934734     0.15400
C3690       C  0.70504235  0.06620364  0.97438557    -0.23600
H3691       H  0.82296326  0.99884136  0.89730171     0.05600
H3692       H  0.83021673  0.04493709  0.89189915     0.08800
H3693       H  0.80623306  0.01975690  0.86117502     0.08800
H3694       H  0.71549662  0.06842596  0.00031374     0.08800
H3695       H  0.68446599  0.04798383  0.97401376     0.08800
H3696       H  0.69564215  0.09276619  0.96750536     0.05600
C3697       C  0.68234837  0.92780517  0.05869411    -0.20200
C3698       C  0.68246161  0.95388803  0.03362741    -0.06800
C3699       C  0.65494048  0.95714880  0.01238310     0.14100
C3700       C  0.63284946  0.92967753  0.01138324    -0.20300
C3701       C  0.63869870  0.89863158  0.02932545    -0.06800
C3702       C  0.66091175  0.89941109  0.05624232     0.14100
C3703       C  0.66439529  0.86856638  0.07932695    -0.23600
H3704       H  0.70134408  0.92711319  0.07755889     0.15400
H3705       H  0.61444279  0.92969335  0.99187892     0.15400
C3706       C  0.64884734  0.98798527  0.98958801    -0.23600
H3707       H  0.68366852  0.87321530  0.09855475     0.05600
H3708       H  0.67049191  0.84411192  0.06457985     0.08800
H3709       H  0.64141001  0.86464335  0.09261750     0.08800
H3710       H  0.65083112  0.01307100  0.00458992     0.08800
H3711       H  0.62428703  0.98734022  0.97831007     0.08800
H3712       H  0.66567872  0.98727582  0.96810546     0.05600
C3713       C  0.82971733  0.95330976  0.02521528    -0.20200
C3714       C  0.79953576  0.94100428  0.03555456    -0.06800
C3715       C  0.79868663  0.91132895  0.05705894     0.14100
C3716       C  0.82753345  0.89776981  0.07005329    -0.20300
C3717       C  0.85696835  0.91363494  0.06342965    -0.06800
C3718       C  0.85843859  0.94017127  0.03915165     0.14100
C3719       C  0.88963028  0.95643078  0.02892695    -0.23600
H3720       H  0.83110347  0.97481749  0.00762650     0.15400
H3721       H  0.82691674  0.87700471  0.08854998     0.15400
C3722       C  0.76800680  0.89446858  0.06825680    -0.23600
H3723       H  0.89268936  0.95267637  0.00122648     0.05600
H3724       H  0.91078119  0.94440560  0.04170982     0.08800
H3725       H  0.88919645  0.98520845  0.03522105     0.08800
H3726       H  0.75305809  0.88652479  0.04595564     0.08800
H3727       H  0.75481800  0.91324035  0.08508329     0.08800
H3728       H  0.77266768  0.87023464  0.08300422     0.05600
C3729       C  0.73884795  0.65411724  0.84419430    -0.20200
C3730       C  0.76813118  0.65905327  0.82771685    -0.06800
C3731       C  0.79357354  0.63507937  0.83356042     0.14100
C3732       C  0.79006998  0.60943039  0.85830953    -0.20300
C3733       C  0.76232397  0.60841407  0.87853847    -0.06800
C3734       C  0.73605354  0.63032509  0.87052694     0.14100
C3735       C  0.70639544  0.63228337  0.89171451    -0.23600
H3736       H  0.71943874  0.67245569  0.83981668     0.15400
H3737       H  0.81061309  0.59297154  0.86455345     0.15400
C3738       C  0.82544675  0.63871389  0.81647145    -0.23600
H3739       H  0.70515743  0.65852380  0.90489628     0.05600
H3740       H  0.70566750  0.61120601  0.91076212     0.08800
H3741       H  0.68500443  0.62966506  0.87517117     0.08800
H3742       H  0.83583378  0.66514882  0.82244112     0.08800
H3743       H  0.82198110  0.63539374  0.78875366     0.08800
H3744       H  0.84304703  0.61830847  0.82483806     0.05600
C3745       C  0.75252053  0.81568393  0.84787712    -0.20200
C3746       C  0.76289281  0.78263075  0.85966849    -0.06800
C3747       C  0.75458791  0.77291315  0.89282255     0.14100
C3748       C  0.72953370  0.79100816  0.90898022    -0.20300
C3749       C  0.71476296  0.82026715  0.89398594    -0.06800
C3750       C  0.72882643  0.83517022  0.86530751     0.14100
C3751       C  0.71742936  0.87028247  0.85209914    -0.23600
H3752       H  0.76033781  0.82457563  0.82349086     0.15400
H3753       H  0.72008248  0.78077964  0.93220481     0.15400
C3754       C  0.77048371  0.74263781  0.91102490    -0.23600
H3755       H  0.73157725  0.87829115  0.82996358     0.05600
H3756       H  0.72024247  0.89100111  0.87226604     0.08800
H3757       H  0.69182158  0.86904272  0.84415251     0.08800
H3758       H  0.79188206  0.73221400  0.89756618     0.08800
H3759       H  0.75300769  0.72093777  0.91411714     0.08800
H3760       H  0.77893550  0.75200009  0.93640481     0.05600
C3761       C  0.81230690  0.78730549  0.74441269    -0.20200
C3762       C  0.80930571  0.75050580  0.74876613    -0.06800
C3763       C  0.82163810  0.72721929  0.72312183     0.14100
C3764       C  0.83792400  0.74141528  0.69551757    -0.20300
C3765       C  0.84222525  0.77799678  0.69283099    -0.06800
C3766       C  0.82882726  0.80123604  0.71735647     0.14100
C3767       C  0.83192131  0.84103786  0.71634070    -0.23600
H3768       H  0.80240993  0.80596243  0.76279425     0.15400
H3769       H  0.84791653  0.72389380  0.67619535     0.15400
C3770       C  0.81845620  0.68759294  0.72443104    -0.23600
H3771       H  0.84397700  0.85083903  0.73991206     0.05600
H3772       H  0.80761864  0.85331089  0.71459809     0.08800
H3773       H  0.84605625  0.85024293  0.69477588     0.08800
H3774       H  0.79269415  0.68030745  0.72519548     0.08800
H3775       H  0.83147967  0.67770192  0.74697858     0.08800
H3776       H  0.82897177  0.67403575  0.70188562     0.05600
loop_ 
_geom_bond_atom_site_label_1 
_geom_bond_atom_site_label_2 
_geom_bond_distance 
_geom_bond_site_symmetry_2 
_ccdc_geom_bond_type 
O1           Ni7   1.989       .  S
O1           C22   1.302       .  A
O2          Ni25   2.011       .  S
O2           C11   1.312       .  A
O3           Ni7   1.879       .  S
O3          Ni25   1.919       .  S
O3          Ni19   1.863       .  S
O3           H26   0.967       .  S
C4           O21   1.321       .  A
C4           O13   1.300       .  A
C4         C1051   1.512       .  S
O5          Ni24   1.978       .  S
O5           C11   1.295       .  A
O6          Ni24   1.973       .  S
O6            C8   1.281       .  A
Ni7          O10   1.980       .  S
Ni7          O12   1.952       .  S
C8           O18   1.261       .  A
C8          C543   1.528       .  S
O9          Ni25   1.938       .  S
O9           C15   1.303       .  A
O10          C15   1.302       .  A
C11        C1606   1.557       .  S
O12          C14   1.278       .  A
O13         Ni24   1.963       .  S
C14          O20   1.261       .  A
C14        C1418   1.516       .  S
C15         C910   1.518       .  S
H16          O17   0.966       .  S
O17         Ni25   1.855       .  S
O17         Ni19   1.904       .  S
O17         Ni24   1.864       .  S
O18         Ni19   1.947       .  S
Ni19         O23   2.029       .  S
Ni19         O21   1.975       .  S
O20         Ni25   1.952       .  S
C22          O23   1.320       .  A
C22        C1788   1.584       .  S
O27         Ni33   2.021       .  S
O27          C48   1.302       .  A
O28         Ni51   2.028       .  S
O28          C37   1.320       .  A
O29         Ni33   1.847       .  S
O29         Ni51   1.879       .  S
O29         Ni45   1.864       .  S
O29          H52   0.967       .  S
C30          O47   1.314       .  A
C30          O39   1.306       .  A
C30         C943   1.552       .  S
O31         Ni50   1.956       .  S
O31          C37   1.296       .  A
O32         Ni50   1.948       .  S
O32          C34   1.280       .  A
Ni33         O36   1.929       .  S
Ni33         O38   1.942       .  S
C34          O44   1.275       .  A
C34        C2127   1.555       .  S
O35         Ni51   2.015       .  S
O35          C41   1.324       .  A
O36          C41   1.298       .  A
C37         C698   1.552       .  S
O38          C40   1.293       .  A
O39         Ni50   2.007       .  S
C40          O46   1.298       .  A
C40        C1787   1.547       .  S
C41        C1343   1.546       .  S
H42          O43   0.967       .  S
O43         Ni51   1.873       .  S
O43         Ni45   1.872       .  S
O43         Ni50   1.852       .  S
O44         Ni45   1.988       .  S
Ni45         O49   1.967       .  S
Ni45         O47   1.963       .  S
O46         Ni51   2.007       .  S
C48          O49   1.311       .  A
C48        C1138   1.572       .  S
C53        C3762   1.502       .  S
C53          N54   1.366       .  A
C53          N58   1.370       .  A
N54          C55   1.353       .  A
C55        C3746   1.480       .  S
C55          N56   1.344       .  A
N56          C57   1.348       .  A
C57        C3730   1.475       .  S
C57          N58   1.364       .  A
C59        C3682   1.476   1_565  S
C59          N60   1.357       .  A
C59          N64   1.355       .  A
N60          C61   1.353   1_556  A
C61        C3714   1.490       .  S
C61          N62   1.352       .  A
N62          C63   1.357       .  A
C63        C3698   1.484       .  S
C63          N64   1.358   1_554  A
C65        C3634   1.477       .  S
C65          N66   1.356   1_556  A
C65          N70   1.358       .  A
N66          C67   1.359   1_655  A
C67        C3650   1.473       .  S
C67          N68   1.352   1_554  A
N68          C69   1.353       .  A
C69        C3666   1.455       .  S
C69          N70   1.351   1_455  A
C71        C3618   1.446   1_565  S
C71          N72   1.341       .  A
C71          N76   1.354   1_565  A
N72          C73   1.349       .  A
C73        C3586   1.460       .  S
C73          N74   1.355   1_655  A
N74          C75   1.361       .  A
C75        C3602   1.461   1_565  S
C75          N76   1.356   1_465  A
N77          C82   1.342       .  A
N77          C81   1.343       .  A
N77         H109   1.044       .  S
N78          C85   1.351       .  A
N78          C86   1.355       .  A
N79          C84   1.369       .  A
N79          C83   1.365       .  A
N79         H110   1.043       .  S
N80          C87   1.341       .  A
N80          C88   1.333       .  A
C81          C89   1.385       .  A
C81          C97   1.396       .  A
C82          C98   1.407       .  A
C82          C90   1.388       .  A
C83          C91   1.390       .  A
C83         C100   1.453       .  A
C84          C99   1.458       .  A
C84          C92   1.392       .  A
C85          C97   1.406       .  A
C85          C93   1.378       .  A
C86         C100   1.432       .  A
C86          C94   1.396       .  A
C87          C95   1.382       .  A
C87          C98   1.399       .  A
C88          C96   1.391       .  A
C88          C99   1.401       .  A
C89          C90   1.381       .  A
C89         H101   1.082       .  S
C90         H102   1.081       .  S
C91          C92   1.411       .  A
C91         H103   1.081       .  S
C92         H104   1.082       .  S
C93          C94   1.369       .  A
C93         H105   1.083       .  S
C94         H106   1.079       .  S
C95          C96   1.379       .  A
C95         H107   1.078   1_565  S
C96         H108   1.082       .  S
C97        C3669   1.482       .  S
C98        C3605   1.472       .  S
C99         C414   1.542       .  S
C100        C366   1.546       .  S
N111        C116   1.344       .  A
N111        C115   1.344       .  A
N111        H143   1.043       .  S
N112        C119   1.348       .  A
N112        C120   1.343       .  A
N113        C118   1.386       .  A
N113        C117   1.388       .  A
N113        H144   1.043       .  S
N114        C121   1.351       .  A
N114        C122   1.351       .  A
C115        C123   1.391       .  A
C115        C131   1.411       .  A
C116        C132   1.396       .  A
C116        C124   1.383       .  A
C117        C125   1.394       .  A
C117        C134   1.497       .  A
C118        C133   1.496       .  A
C118        C126   1.394       .  A
C119        C131   1.402       .  A
C119        C127   1.379   1_655  A
C120        C134   1.404       .  A
C120        C128   1.390       .  A
C121        C129   1.377       .  A
C121        C132   1.398       .  A
C122        C130   1.387       .  A
C122        C133   1.418       .  A
C123        C124   1.382       .  A
C123        H135   1.082       .  S
C124        H136   1.082       .  S
C125        C126   1.425       .  A
C125        H137   1.082       .  S
C126        H138   1.082       .  S
C127        C128   1.377   1_455  A
C127        H139   1.081       .  S
C128        H140   1.082   1_655  S
C129        C130   1.364       .  A
C129        H141   1.082       .  S
C130        H142   1.072       .  S
C131       C3653   1.482   1_655  S
C132       C3717   1.475       .  S
C133        C750   1.590       .  S
C134        C470   1.586       .  S
N145        C150   1.345       .  A
N145        C149   1.339       .  A
N145        H177   1.042       .  S
N146        C153   1.354       .  A
N146        C154   1.356       .  A
N147        C152   1.372       .  A
N147        C151   1.375       .  A
N147        H178   1.043       .  S
N148        C155   1.351       .  A
N148        C156   1.340       .  A
C149        C157   1.388       .  A
C149        C165   1.400       .  A
C150        C166   1.400       .  A
C150        C158   1.384       .  A
C151        C159   1.389       .  A
C151        C168   1.464       .  A
C152        C167   1.463       .  A
C152        C160   1.391       .  A
C153        C165   1.423       .  A
C153        C161   1.388       .  A
C154        C168   1.415       .  A
C154        C162   1.386       .  A
C155        C163   1.380       .  A
C155        C166   1.403       .  A
C156        C164   1.392       .  A
C156        C167   1.405       .  A
C157        C158   1.384       .  A
C157        H169   1.082       .  S
C158        H170   1.082       .  S
C159        C160   1.410       .  A
C159        H171   1.082       .  S
C160        H172   1.082       .  S
C161        C162   1.369       .  A
C161        H173   1.081       .  S
C162        H174   1.080       .  S
C163        C164   1.373       .  A
C163        H175   1.082       .  S
C164        H176   1.076       .  S
C165       C3589   1.486       .  S
C166       C3765   1.482       .  S
C167        C458   1.522       .  S
C168       C1290   1.548       .  S
N179        C184   1.345       .  A
N179        C183   1.347       .  A
N179        H211   1.034       .  S
N180        C187   1.344       .  A
N180        C188   1.346       .  A
N181        C186   1.361       .  A
N181        C185   1.367       .  A
N181        H212   1.043       .  S
N182        C189   1.344       .  A
N182        C190   1.338       .  A
C183        C191   1.387       .  A
C183        C199   1.408       .  A
C184        C200   1.401       .  A
C184        C192   1.384       .  A
C185        C193   1.387       .  A
C185        C202   1.440       .  A
C186        C201   1.428       .  A
C186        C194   1.386       .  A
C187        C199   1.419       .  A
C187        C195   1.391       .  A
C188        C202   1.396       .  A
C188        C196   1.384       .  A
C189        C197   1.380       .  A
C189        C200   1.394       .  A
C190        C198   1.387       .  A
C190        C201   1.402       .  A
C191        C192   1.376       .  A
C191        H203   1.082       .  S
C192        H204   1.081       .  S
C193        C194   1.393       .  A
C193        H205   1.082       .  S
C194        H206   1.082       .  S
C195        C196   1.369       .  A
C195        H207   1.081       .  S
C196        H208   1.082       .  S
C197        C198   1.374       .  A
C197        H209   1.079       .  S
C198        H210   1.082       .  S
C199       C3637   1.468       .  S
C200       C3733   1.490       .  S
C201       C1261   1.515       .  S
C202        C395   1.505       .  S
N213        C218   1.349       .  A
N213        C217   1.355       .  A
N213        H245   1.039       .  S
N214        C221   1.342   1_556  A
N214        C222   1.337       .  A
N215        C220   1.362       .  A
N215        C219   1.368       .  A
N215        H246   1.039       .  S
N216        C223   1.359       .  A
N216        C224   1.361       .  A
C217        C225   1.393       .  A
C217        C233   1.423   1_556  A
C218        C234   1.403       .  A
C218        C226   1.382       .  A
C219        C227   1.389       .  A
C219        C236   1.451       .  A
C220        C235   1.445       .  A
C220        C228   1.388       .  A
C221        C233   1.399       .  A
C221        C229   1.386       .  A
C222        C236   1.398       .  A
C222        C230   1.387   1_556  A
C223        C231   1.377       .  A
C223        C234   1.415       .  A
C224        C232   1.391       .  A
C224        C235   1.437       .  A
C225        C226   1.368       .  A
C225        H237   1.078   1_556  S
C226        H238   1.083       .  S
C227        C228   1.405       .  A
C227        H239   1.082       .  S
C228        H240   1.082       .  S
C229        C230   1.374       .  A
C229        H241   1.083       .  S
C230        H242   1.082       .  S
C231        C232   1.356       .  A
C231        H243   1.082       .  S
C232        H244   1.072       .  S
C233       C3701   1.484       .  S
C234       C3749   1.488       .  S
C235        C346   1.539       .  S
C236        C496   1.521       .  S
N247        C252   1.339       .  A
N247        C251   1.343       .  A
N247        H279   1.041       .  S
N248        C255   1.347       .  A
N248        C256   1.343       .  A
N249        C254   1.360       .  A
N249        C253   1.364       .  A
N249        H280   1.043       .  S
N250        C257   1.349       .  A
N250        C258   1.351       .  A
C251        C259   1.385       .  A
C251        C267   1.400       .  A
C252        C268   1.397       .  A
C252        C260   1.387       .  A
C253        C261   1.387       .  A
C253        C270   1.440       .  A
C254        C269   1.445       .  A
C254        C262   1.391       .  A
C255        C267   1.407       .  A
C255        C263   1.387       .  A
C256        C270   1.397       .  A
C256        C264   1.387       .  A
C257        C265   1.390       .  A
C257        C268   1.417       .  A
C258        C266   1.385       .  A
C258        C269   1.401       .  A
C259        C260   1.384       .  A
C259        H271   1.082       .  S
C260        H272   1.082       .  S
C261        C262   1.405       .  A
C261        H273   1.082       .  S
C262        H274   1.082       .  S
C263        C264   1.367       .  A
C263        H275   1.081       .  S
C264        H276   1.081       .  S
C265        C266   1.367       .  A
C265        H277   1.081       .  S
C266        H278   1.081       .  S
C267       C3685   1.481       .  S
C268       C3621   1.469       .  S
C269       C2001   1.501       .  S
C270        C790   1.507       .  S
O281       Ni287   1.965       .  S
O281        C302   1.296       .  A
O282       Ni305   1.909       .  S
O282        C291   1.293       .  A
O283       Ni287   1.870       .  S
O283       Ni305   1.855       .  S
O283       Ni299   1.892       .  S
O283        H306   0.967       .  S
C284        O301   1.328       .  A
C284        O293   1.297       .  A
C284       C1103   1.546       .  S
O285       Ni304   1.988       .  S
O285        C291   1.297       .  A
O286       Ni304   1.910       .  S
O286        C288   1.288       .  A
Ni287       O290   1.969       .  S
Ni287       O292   1.974       .  S
C288        O298   1.302       .  A
C288        C944   1.541       .  S
O289       Ni305   1.999       .  S
O289        C295   1.316       .  A
O290        C295   1.299       .  A
C291       C2041   1.513       .  S
O292        C294   1.280       .  A
O293       Ni304   1.934       .  S
C294        O300   1.266       .  A
C294       C1560   1.567       .  S
C295       C1840   1.534       .  S
H296        O297   0.966       .  S
O297       Ni305   1.892       .  S
O297       Ni299   1.859       .  S
O297       Ni304   1.808       .  S
O298       Ni299   2.032       .  S
Ni299       O303   1.982       .  S
Ni299       O301   2.038       .  S
O300       Ni305   1.995       .  S
C302        O303   1.314       .  A
C302        C544   1.530       .  S
O307       Ni313   1.922       .  S
O307        C328   1.283       .  A
O308       Ni331   1.968       .  S
O308        C317   1.308       .  A
O309       Ni313   1.849       .  S
O309       Ni331   1.872       .  S
O309       Ni325   1.875       .  S
O309        H332   0.967       .  S
C310        O327   1.311       .  A
C310        O319   1.307       .  A
C310       C1646   1.536       .  S
O311       Ni330   2.011       .  S
O311        C317   1.305       .  A
O312       Ni330   2.003       .  S
O312        C314   1.286       .  A
Ni313       O316   1.947       .  S
Ni313       O318   1.920       .  S
C314        O324   1.267       .  A
C314       C1839   1.550       .  S
O315       Ni331   1.989       .  S
O315        C321   1.318       .  A
O316        C321   1.293       .  A
C317       C2088   1.567       .  S
O318        C320   1.269       .  A
O319       Ni330   1.992       .  S
C320        O326   1.269       .  A
C320       C1378   1.526       .  S
C321        C697   1.505       .  S
H322        O323   0.967       .  S
O323       Ni331   1.872       .  S
O323       Ni325   1.880       .  S
O323       Ni330   1.872       .  S
O324       Ni325   1.958       .  S
Ni325       O329   1.982       .  S
Ni325       O327   1.968       .  S
O326       Ni331   1.978       .  S
C328        O329   1.303       .  A
C328        C909   1.533       .  S
O333       Ni339   1.916       .  S
O333        C354   1.280       .  A
O334       Ni357   1.997       .  S
O334        C343   1.316       .  A
O335       Ni339   1.835       .  S
O335       Ni357   1.886       .  S
O335       Ni351   1.856       .  S
O335        H358   0.966       .  S
C336        O353   1.306       .  A
C336        O345   1.297       .  A
C336        C663   1.504       .  S
O337       Ni356   1.978       .  S
O337        C343   1.295       .  A
O338       Ni356   1.944       .  S
O338        C340   1.272       .  A
Ni339       O342   1.950       .  S
Ni339       O344   1.919       .  S
C340        O350   1.261       .  A
C340       C1605   1.549       .  S
O341       Ni357   1.960       .  S
O341        C347   1.311       .  A
O342        C347   1.297       .  A
C343        C841   1.576       .  S
O344        C346   1.267       .  A
O345       Ni356   1.958       .  S
C346        O352   1.281       .  A
C347       C1171   1.480       .  S
H348        O349   0.967       .  S
O349       Ni357   1.868       .  S
O349       Ni351   1.916       .  S
O349       Ni356   1.873       .  S
O350       Ni351   2.002       .  S
Ni351       O355   1.988       .  S
Ni351       O353   1.961       .  S
O352       Ni357   1.990       .  S
C354        O355   1.302       .  A
C354       C1452   1.506       .  S
O359       Ni365   1.938       .  S
O359        C380   1.285       .  A
O360       Ni383   2.019       .  S
O360        C369   1.326       .  A
O361       Ni365   1.879   1_556  S
O361       Ni383   1.888       .  S
O361       Ni377   1.895   1_556  S
O361        H384   0.968       .  S
C362        O379   1.315       .  A
C362        O371   1.298       .  A
C362       C2195   1.533       .  S
O363       Ni382   1.924       .  S
O363        C369   1.287       .  A
O364       Ni382   1.918       .  S
O364        C366   1.272       .  A
Ni365       O368   1.959   1_554  S
Ni365       O370   1.964       .  S
C366        O376   1.280       .  A
O367       Ni383   2.069       .  S
O367        C373   1.342       .  A
O368        C373   1.295       .  A
C369       C1748   1.541       .  S
O370        C372   1.280       .  A
O371       Ni382   1.979   1_554  S
C372        O378   1.255       .  A
C372       C1104   1.538       .  S
C373        C842   1.582       .  S
H374        O375   0.966       .  S
O375       Ni383   1.890   1_554  S
O375       Ni377   1.878       .  S
O375       Ni382   1.848   1_554  S
O376       Ni377   1.995   1_556  S
Ni377       O381   1.989       .  S
Ni377       O379   1.976       .  S
O378       Ni383   1.957   1_554  S
C380        O381   1.309       .  A
C380        C617   1.518       .  S
O385       Ni391   1.960       .  S
O385        C406   1.293       .  A
O386       Ni409   1.973       .  S
O386        C395   1.307       .  A
O387       Ni391   1.862       .  S
O387       Ni409   1.861   1_454  S
O387       Ni403   1.878   1_455  S
O387        H410   0.967       .  S
C388        O405   1.319       .  A
C388        O397   1.287       .  A
C388       C1908   1.537       .  S
O389       Ni408   1.936   1_556  S
O389        C395   1.289       .  A
O390       Ni408   1.912       .  S
O390        C392   1.282       .  A
Ni391       O394   1.957   1_554  S
Ni391       O396   1.968   1_554  S
C392        O402   1.299       .  A
C392       C1206   1.544       .  S
O393       Ni409   2.007   1_455  S
O393        C399   1.324       .  A
O394        C399   1.297       .  A
O396        C398   1.280       .  A
O397       Ni408   1.923       .  S
C398        O404   1.268       .  A
C398       C1011   1.544       .  S
C399       C1747   1.548       .  S
H400        O401   0.967       .  S
O401       Ni409   1.897       .  S
O401       Ni403   1.862   1_556  S
O401       Ni408   1.819   1_556  S
O402       Ni403   2.040       .  S
Ni403       O407   1.957   1_655  S
Ni403       O405   2.008       .  S
O404       Ni409   1.967   1_455  S
C406        O407   1.303       .  A
C406       C2042   1.518       .  S
O411       Ni417   1.974       .  S
O411        C432   1.299       .  A
O412       Ni435   2.004       .  S
O412        C421   1.310       .  A
O413       Ni417   1.827       .  S
O413       Ni435   1.859   1_545  S
O413       Ni429   1.870   1_545  S
O413        H436   0.966       .  S
C414        O431   1.311       .  A
C414        O423   1.295       .  A
O415       Ni434   1.925       .  S
O415        C421   1.285       .  A
O416       Ni434   1.949       .  S
O416        C418   1.280       .  A
Ni417       O420   1.919       .  S
Ni417       O422   1.912       .  S
C418        O428   1.272       .  A
C418       C1713   1.538       .  S
O419       Ni435   1.994   1_545  S
O419        C425   1.322       .  A
O420        C425   1.295       .  A
C421        C664   1.508       .  S
O422        C424   1.283       .  A
O423       Ni434   1.976       .  S
C424        O430   1.293       .  A
C424        C977   1.526       .  S
C425       C1377   1.534       .  S
H426        O427   0.967       .  S
O427       Ni435   1.870       .  S
O427       Ni429   1.849       .  S
O427       Ni434   1.841       .  S
O428       Ni429   1.980       .  S
Ni429       O433   1.941   1_565  S
Ni429       O431   1.965       .  S
O430       Ni435   1.998   1_545  S
C432        O433   1.296       .  A
C432       C2162   1.504       .  S
O437       Ni443   1.983       .  S
O437        C458   1.286       .  A
O438       Ni461   1.984       .  S
O438        C447   1.295       .  A
O439       Ni443   1.907       .  S
O439       Ni461   1.930       .  S
O439       Ni455   1.903       .  S
O439        H462   0.951       .  S
C440        O457   1.296       .  A
C440        O449   1.289       .  A
C440       C1451   1.503       .  S
O441       Ni460   1.956       .  S
O441        C447   1.276       .  A
O442       Ni460   1.919       .  S
O442        C444   1.276       .  A
Ni443       O446   1.990       .  S
Ni443       O448   1.975       .  S
C444        O454   1.277       .  A
C444        C583   1.491       .  S
O445       Ni461   1.983       .  S
O445        C451   1.310       .  A
O446        C451   1.290       .  A
C447       C1052   1.525       .  S
O448        C450   1.287       .  A
O449       Ni460   1.970       .  S
C450        O456   1.268       .  A
C450       C1679   1.509       .  S
C451       C1942   1.547       .  S
H452        O453   0.946       .  S
O453       Ni461   1.883       .  S
O453       Ni455   1.912       .  S
O453       Ni460   1.902       .  S
O454       Ni455   1.940       .  S
Ni455       O459   1.959       .  S
Ni455       O457   1.959       .  S
O456       Ni461   1.912       .  S
C458        O459   1.290       .  A
O463       Ni469   1.946   1_655  S
O463        C484   1.289       .  A
O464       Ni487   1.962       .  S
O464        C473   1.305       .  A
O465       Ni469   1.871       .  S
O465       Ni487   1.877       .  S
O465       Ni481   1.891   1_455  S
O465        H488   0.966   1_455  S
C466        O483   1.323       .  A
C466        O475   1.294       .  A
C466       C1205   1.529       .  S
O467       Ni486   1.970       .  S
O467        C473   1.293       .  A
O468       Ni486   1.975   1_655  S
O468        C470   1.275       .  A
Ni469       O472   1.978       .  S
Ni469       O474   1.969       .  S
C470        O480   1.283       .  A
O471       Ni487   1.992       .  S
O471        C477   1.315       .  A
O472        C477   1.302       .  A
C473       C2194   1.534       .  S
O474        C476   1.280       .  A
O475       Ni486   1.945   1_655  S
C476        O482   1.285       .  A
C476       C1559   1.585       .  S
C477        C731   1.536       .  S
H478        O479   0.967       .  S
O479       Ni487   1.896       .  S
O479       Ni481   1.893   1_455  S
O479       Ni486   1.890       .  S
O480       Ni481   2.041       .  S
Ni481       O485   1.997       .  S
Ni481       O483   2.009       .  S
O482       Ni487   2.023       .  S
C484        O485   1.313       .  A
C484       C1941   1.528       .  S
O489       Ni495   1.940   1_565  S
O489        C510   1.290   1_556  A
O490       Ni513   1.969       .  S
O490        C499   1.308       .  A
O491       Ni495   1.828       .  S
O491       Ni513   1.846       .  S
O491       Ni507   1.871   1_546  S
O491        H514   0.968   1_545  S
C492        O509   1.317       .  A
C492        O501   1.302       .  A
C492       C1239   1.544       .  S
O493       Ni512   1.954       .  S
O493        C499   1.293       .  A
O494       Ni512   1.952   1_565  S
O494        C496   1.275       .  A
Ni495       O498   1.904       .  S
Ni495       O500   1.921   1_556  S
C496        O506   1.265       .  A
O497       Ni513   2.021       .  S
O497        C503   1.326       .  A
O498        C503   1.284       .  A
C499       C1519   1.516       .  S
O500        C502   1.280       .  A
O501       Ni512   1.985   1_564  S
C502        O508   1.298       .  A
C502       C2128   1.540       .  S
C503        C978   1.541       .  S
H504        O505   0.966   1_554  S
O505       Ni513   1.879       .  S
O505       Ni507   1.864   1_546  S
O505       Ni512   1.867       .  S
O506       Ni507   1.957   1_556  S
Ni507       O511   1.957       .  S
Ni507       O509   1.985       .  S
O508       Ni513   2.013   1_554  S
C510        O511   1.302       .  A
C510        C618   1.485       .  S
C515       C3538   1.480       .  S
C515        N516   1.356       .  A
C515        N520   1.360       .  A
N516        C517   1.345       .  A
C517       C3570   1.440       .  S
C517        N518   1.340       .  A
N518        C519   1.344       .  A
C519       C3554   1.460       .  S
C519        N520   1.359       .  A
N521        C526   1.355       .  A
N521        C525   1.342       .  A
N521        H553   1.037       .  S
N522        C529   1.350       .  A
N522        C530   1.355       .  A
N523        C528   1.367       .  A
N523        C527   1.363       .  A
N523        H554   1.034       .  S
N524        C531   1.341       .  A
N524        C532   1.336       .  A
C525        C533   1.390       .  A
C525        C541   1.409       .  A
C526        C542   1.406       .  A
C526        C534   1.382       .  A
C527        C535   1.393       .  A
C527        C544   1.460       .  A
C528        C543   1.456       .  A
C528        C536   1.389       .  A
C529        C541   1.408       .  A
C529        C537   1.382       .  A
C530        C544   1.430       .  A
C530        C538   1.394       .  A
C531        C539   1.389       .  A
C531        C542   1.399       .  A
C532        C540   1.387       .  A
C532        C543   1.394       .  A
C533        C534   1.377       .  A
C533        H545   1.082       .  S
C534        H546   1.082       .  S
C535        C536   1.412       .  A
C535        H547   1.082       .  S
C536        H548   1.082       .  S
C537        C538   1.360       .  A
C537        H549   1.082       .  S
C538        H550   1.080       .  S
C539        C540   1.379       .  A
C539        H551   1.082       .  S
C540        H552   1.082       .  S
C541       C3557   1.468       .  S
C542       C3525   1.490       .  S
C555       C3493   1.447       .  S
C555        N556   1.346       .  A
C555        N560   1.355       .  A
N556        C557   1.344       .  A
C557       C3506   1.476       .  S
C557        N558   1.357       .  A
N558        C559   1.358       .  A
C559       C3474   1.467       .  S
C559        N560   1.360       .  A
N561        C566   1.351       .  A
N561        C565   1.347       .  A
N561        H593   1.042       .  S
N562        C569   1.356       .  A
N562        C570   1.354       .  A
N563        C568   1.362       .  A
N563        C567   1.359       .  A
N563        H594   1.039       .  S
N564        C571   1.345       .  A
N564        C572   1.342       .  A
C565        C573   1.386       .  A
C565        C581   1.403       .  A
C566        C582   1.408       .  A
C566        C574   1.388       .  A
C567        C575   1.387       .  A
C567        C584   1.432       .  A
C568        C583   1.433       .  A
C568        C576   1.387       .  A
C569        C581   1.409       .  A
C569        C577   1.379       .  A
C570        C584   1.421       .  A
C570        C578   1.388       .  A
C571        C579   1.382       .  A
C571        C582   1.393       .  A
C572        C580   1.391       .  A
C572        C583   1.409       .  A
C573        C574   1.371       .  A
C573        H585   1.082       .  S
C574        H586   1.083       .  S
C575        C576   1.391       .  A
C575        H587   1.082       .  S
C576        H588   1.082       .  S
C577        C578   1.364       .  A
C577        H589   1.083   1_565  S
C578        H590   1.070       .  S
C579        C580   1.370       .  A
C579        H591   1.083       .  S
C580        H592   1.079       .  S
C581       C3477   1.486       .  S
C582       C3458   1.480       .  S
C584        C757   1.504       .  S
N595        C600   1.339       .  A
N595        C599   1.347       .  A
N595        H627   1.036       .  S
N596        C603   1.355       .  A
N596        C604   1.344       .  A
N597        C602   1.369       .  A
N597        C601   1.359       .  A
N597        H628   1.039       .  S
N598        C605   1.348       .  A
N598        C606   1.345       .  A
C599        C607   1.384       .  A
C599        C615   1.399       .  A
C600        C616   1.405       .  A
C600        C608   1.388       .  A
C601        C609   1.388   1_554  A
C601        C618   1.440       .  A
C602        C617   1.447       .  A
C602        C610   1.388   1_554  A
C603        C615   1.400       .  A
C603        C611   1.379       .  A
C604        C618   1.411       .  A
C604        C612   1.392       .  A
C605        C613   1.387       .  A
C605        C616   1.411       .  A
C606        C614   1.384       .  A
C606        C617   1.404       .  A
C607        C608   1.375       .  A
C607        H619   1.083       .  S
C608        H620   1.080       .  S
C609        C610   1.402       .  A
C609        H621   1.082       .  S
C610        H622   1.082       .  S
C611        C612   1.350       .  A
C611        H623   1.083   1_565  S
C612        H624   1.075       .  S
C613        C614   1.374       .  A
C613        H625   1.081       .  S
C614        H626   1.083       .  S
C615       C3490   1.479       .  S
C616       C3573   1.473       .  S
C629       C3426   1.477   1_565  S
C629        N630   1.366       .  A
C629        N634   1.354       .  A
N630        C631   1.366       .  A
C631       C3442   1.491       .  S
C631        N632   1.349       .  A
N632        C633   1.337       .  A
C633       C3410   1.476       .  S
C633        N634   1.350       .  A
C635       C3522   1.494       .  S
C635        N636   1.362       .  A
C635        N640   1.356       .  A
N636        C637   1.364       .  A
C637       C3461   1.482       .  S
C637        N638   1.349       .  A
N638        C639   1.347       .  A
C639       C3394   1.455       .  S
C639        N640   1.348       .  A
N641        C646   1.344       .  A
N641        C645   1.343       .  A
N641        H673   1.038       .  S
N642        C649   1.344       .  A
N642        C650   1.339       .  A
N643        C648   1.356       .  A
N643        C647   1.363       .  A
N643        H674   1.039       .  S
N644        C651   1.349       .  A
N644        C652   1.347       .  A
C645        C653   1.383       .  A
C645        C661   1.396       .  A
C646        C662   1.405       .  A
C646        C654   1.389       .  A
C647        C655   1.385       .  A
C647        C664   1.430       .  A
C648        C663   1.436       .  A
C648        C656   1.389       .  A
C649        C661   1.396       .  A
C649        C657   1.381       .  A
C650        C664   1.414       .  A
C650        C658   1.391       .  A
C651        C659   1.387       .  A
C651        C662   1.418       .  A
C652        C660   1.387       .  A
C652        C663   1.408       .  A
C653        C654   1.380       .  A
C653        H665   1.082       .  S
C654        H666   1.082       .  S
C655        C656   1.396       .  A
C655        H667   1.082       .  S
C656        H668   1.082       .  S
C657        C658   1.372       .  A
C657        H669   1.079       .  S
C658        H670   1.078       .  S
C659        C660   1.370       .  A
C659        H671   1.082       .  S
C660        H672   1.082       .  S
C661       C3413   1.491       .  S
C662       C3397   1.471       .  S
N675        C680   1.354       .  A
N675        C679   1.335       .  A
N675        H707   1.042       .  S
N676        C683   1.356       .  A
N676        C684   1.366       .  A
N677        C682   1.366       .  A
N677        C681   1.371       .  A
N677        H708   1.042       .  S
N678        C685   1.345       .  A
N678        C686   1.330       .  A
C679        C687   1.390       .  A
C679        C695   1.398       .  A
C680        C696   1.408       .  A
C680        C688   1.384       .  A
C681        C689   1.390       .  A
C681        C698   1.456       .  A
C682        C697   1.449       .  A
C682        C690   1.389       .  A
C683        C695   1.430       .  A
C683        C691   1.389       .  A
C684        C698   1.432       .  A
C684        C692   1.387       .  A
C685        C693   1.379       .  A
C685        C696   1.396       .  A
C686        C694   1.392       .  A
C686        C697   1.391       .  A
C687        C688   1.380       .  A
C687        H699   1.082       .  S
C688        H700   1.082       .  S
C689        C690   1.405       .  A
C689        H701   1.082       .  S
C690        H702   1.082       .  S
C691        C692   1.374       .  A
C691        H703   1.081       .  S
C692        H704   1.080       .  S
C693        C694   1.379       .  A
C693        H705   1.080       .  S
C694        H706   1.081       .  S
C695       C3509   1.467       .  S
C696       C3429   1.490       .  S
N709        C714   1.343       .  A
N709        C713   1.357       .  A
N709        H741   1.039       .  S
N710        C717   1.330       .  A
N710        C718   1.327       .  A
N711        C716   1.356       .  A
N711        C715   1.372       .  A
N711        H742   1.042       .  S
N712        C719   1.353       .  A
N712        C720   1.359       .  A
C713        C721   1.384       .  A
C713        C729   1.415       .  A
C714        C730   1.408       .  A
C714        C722   1.390       .  A
C715        C723   1.387       .  A
C715        C732   1.449       .  A
C716        C731   1.441       .  A
C716        C724   1.390       .  A
C717        C729   1.389       .  A
C717        C725   1.387       .  A
C718        C732   1.389       .  A
C718        C726   1.389       .  A
C719        C727   1.387       .  A
C719        C730   1.419       .  A
C720        C728   1.385       .  A
C720        C731   1.419       .  A
C721        C722   1.373       .  A
C721        H733   1.083       .  S
C722        H734   1.082       .  S
C723        C724   1.405       .  A
C723        H735   1.082   1_455  S
C724        H736   1.082       .  S
C725        C726   1.378       .  A
C725        H737   1.080       .  S
C726        H738   1.083       .  S
C727        C728   1.370       .  A
C727        H739   1.082       .  S
C728        H740   1.080       .  S
C729       C3445   1.482       .  S
C730       C3541   1.467       .  S
C732       C1287   1.543       .  S
O743       Ni749   1.949   1_565  S
O743        C764   1.287   1_565  A
O744       Ni767   1.966       .  S
O744        C753   1.308       .  A
O745       Ni749   1.864   1_565  S
O745       Ni767   1.901       .  S
O745       Ni761   1.883       .  S
O745        H768   0.967       .  S
C746        O763   1.314       .  A
C746        O755   1.300       .  A
C746       C2230   1.524       .  S
O747       Ni766   1.973       .  S
O747        C753   1.292       .  A
O748       Ni766   1.988       .  S
O748        C750   1.290       .  A
Ni749       O752   1.936   1_545  S
Ni749       O754   1.943       .  S
C750        O760   1.283       .  A
O751       Ni767   1.985       .  S
O751        C757   1.313       .  A
O752        C757   1.294       .  A
C753       C1240   1.542       .  S
O754        C756   1.277       .  A
O755       Ni766   1.975   1_545  S
C756        O762   1.272       .  A
C756       C1344   1.567       .  S
H758        O759   0.966   1_545  S
O759       Ni767   1.869       .  S
O759       Ni761   1.884       .  S
O759       Ni766   1.860       .  S
O760       Ni761   2.015       .  S
Ni761       O765   1.995   1_565  S
Ni761       O763   1.972   1_565  S
O762       Ni767   2.005   1_545  S
C764        O765   1.311       .  A
C764       C1975   1.535       .  S
O769       Ni775   1.981       .  S
O769        C790   1.298       .  A
O770       Ni793   2.020       .  S
O770        C779   1.326       .  A
O771       Ni775   1.813       .  S
O771       Ni793   1.861   1_556  S
O771       Ni787   1.869   1_556  S
O771        H794   0.966       .  S
C772        O789   1.315       .  A
C772        O781   1.296       .  A
C772       C2229   1.530       .  S
O773       Ni792   1.992       .  S
O773        C779   1.301       .  A
O774       Ni792   1.914       .  S
O774        C776   1.292       .  A
Ni775       O778   1.924       .  S
Ni775       O780   1.903       .  S
C776        O786   1.289       .  A
C776       C1907   1.530       .  S
O777       Ni793   2.051   1_556  S
O777        C783   1.341       .  A
O778        C783   1.296       .  A
C779       C1137   1.567       .  S
O780        C782   1.281       .  A
O781       Ni792   1.940       .  S
C782        O788   1.295       .  A
C782       C1520   1.524       .  S
C783        C875   1.557       .  S
H784        O785   0.968       .  S
O785       Ni793   1.885       .  S
O785       Ni787   1.854       .  S
O785       Ni792   1.815       .  S
O786       Ni787   2.001       .  S
Ni787       O791   1.933   1_554  S
Ni787       O789   1.979       .  S
O788       Ni793   2.001   1_556  S
C790        O791   1.293       .  A
C795       C3346   1.474       .  S
C795        N796   1.369       .  A
C795        N800   1.359       .  A
N796        C797   1.363       .  A
C797       C3381   1.470       .  S
C797        N798   1.346       .  A
N798        C799   1.342       .  A
C799       C3362   1.463       .  S
C799        N800   1.350       .  A
C801       C3314   1.443       .  S
C801        N802   1.344   1_554  A
C801        N806   1.351       .  A
N802        C803   1.349       .  A
C803       C3330   1.478       .  S
C803        N804   1.356       .  A
N804        C805   1.366   1_556  A
C805       C3298   1.467       .  S
C805        N806   1.353       .  A
C807       C3282   1.484       .  S
C807        N808   1.360       .  A
C807        N812   1.366       .  A
N808        C809   1.350       .  A
C809       C3250   1.466       .  S
C809        N810   1.352       .  A
N810        C811   1.350       .  A
C811       C3266   1.493       .  S
C811        N812   1.364       .  A
C813       C3218   1.477       .  S
C813        N814   1.355       .  A
C813        N818   1.343       .  A
N814        C815   1.354       .  A
C815       C3234   1.478       .  S
C815        N816   1.360       .  A
N816        C817   1.355       .  A
C817       C3202   1.468       .  S
C817        N818   1.349       .  A
N819        C824   1.357       .  A
N819        C823   1.341       .  A
N819        H851   1.038       .  S
N820        C827   1.354       .  A
N820        C828   1.361       .  A
N821        C826   1.386       .  A
N821        C825   1.380       .  A
N821        H852   1.038       .  S
N822        C829   1.347       .  A
N822        C830   1.338       .  A
C823        C831   1.389       .  A
C823        C839   1.404       .  A
C824        C840   1.412       .  A
C824        C832   1.386       .  A
C825        C833   1.393       .  A
C825        C842   1.486       .  A
C826        C841   1.483       .  A
C826        C834   1.390       .  A
C827        C839   1.421       .  A
C827        C835   1.386       .  A
C828        C842   1.422       .  A
C828        C836   1.385       .  A
C829        C837   1.375       .  A
C829        C840   1.392       .  A
C830        C838   1.388       .  A
C830        C841   1.407       .  A
C831        C832   1.369       .  A
C831        H843   1.082       .  S
C832        H844   1.080       .  S
C833        C834   1.415       .  A
C833        H845   1.082       .  S
C834        H846   1.082       .  S
C835        C836   1.365       .  A
C835        H847   1.082       .  S
C836        H848   1.078       .  S
C837        C838   1.372       .  A
C837        H849   1.081       .  S
C838        H850   1.070       .  S
C839       C3205   1.466       .  S
C840       C3269   1.491       .  S
N853        C858   1.355       .  A
N853        C857   1.347       .  A
N853        H885   1.041       .  S
N854        C861   1.362       .  A
N854        C862   1.365       .  A
N855        C860   1.378       .  A
N855        C859   1.371       .  A
N855        H886   1.041       .  S
N856        C863   1.341       .  A
N856        C864   1.335       .  A
C857        C865   1.384       .  A
C857        C873   1.403       .  A
C858        C874   1.418       .  A
C858        C866   1.390       .  A
C859        C867   1.390       .  A
C859        C876   1.463       .  A
C860        C875   1.473       .  A
C860        C868   1.392       .  A
C861        C873   1.427       .  A
C861        C869   1.382       .  A
C862        C876   1.440       .  A
C862        C870   1.389       .  A
C863        C871   1.383   1_556  A
C863        C874   1.397       .  A
C864        C872   1.387       .  A
C864        C875   1.395       .  A
C865        C866   1.369       .  A
C865        H877   1.083       .  S
C866        H878   1.080       .  S
C867        C868   1.412       .  A
C867        H879   1.082       .  S
C868        H880   1.081       .  S
C869        C870   1.352       .  A
C869        H881   1.077       .  S
C870        H882   1.080       .  S
C871        C872   1.377   1_554  A
C871        H883   1.078       .  S
C872        H884   1.083   1_556  S
C873       C3253   1.491       .  S
C874       C3301   1.485       .  S
C876       C1264   1.577       .  S
N887        C892   1.338       .  A
N887        C891   1.353       .  A
N887        H919   1.039       .  S
N888        C895   1.335       .  A
N888        C896   1.338       .  A
N889        C894   1.359       .  A
N889        C893   1.364       .  A
N889        H920   1.037       .  S
N890        C897   1.351       .  A
N890        C898   1.356       .  A
C891        C899   1.388       .  A
C891        C907   1.408       .  A
C892        C908   1.398       .  A
C892        C900   1.386       .  A
C893        C901   1.383       .  A
C893        C910   1.438       .  A
C894        C909   1.454       .  A
C894        C902   1.397       .  A
C895        C907   1.404       .  A
C895        C903   1.391       .  A
C896        C910   1.403       .  A
C896        C904   1.384       .  A
C897        C905   1.378       .  A
C897        C908   1.407       .  A
C898        C906   1.394       .  A
C898        C909   1.435       .  A
C899        C900   1.372       .  A
C899        H911   1.081       .  S
C900        H912   1.082       .  S
C901        C902   1.395       .  A
C901        H913   1.081       .  S
C902        H914   1.079       .  S
C903        C904   1.382       .  A
C903        H915   1.082       .  S
C904        H916   1.082       .  S
C905        C906   1.376       .  A
C905        H917   1.082       .  S
C906        H918   1.077       .  S
C907       C3285   1.494       .  S
C908       C3365   1.466       .  S
N921        C926   1.345       .  A
N921        C925   1.334       .  A
N921        H953   1.040       .  S
N922        C929   1.362       .  A
N922        C930   1.357       .  A
N923        C928   1.377       .  A
N923        C927   1.366       .  A
N923        H954   1.041       .  S
N924        C931   1.341       .  A
N924        C932   1.335       .  A
C925        C933   1.391       .  A
C925        C941   1.396       .  A
C926        C942   1.397       .  A
C926        C934   1.382       .  A
C927        C935   1.393       .  A
C927        C944   1.464       .  A
C928        C943   1.465       .  A
C928        C936   1.390       .  A
C929        C941   1.417       .  A
C929        C937   1.380       .  A
C930        C944   1.428       .  A
C930        C938   1.389       .  A
C931        C939   1.381       .  A
C931        C942   1.392       .  A
C932        C940   1.381       .  A
C932        C943   1.388       .  A
C933        C934   1.382       .  A
C933        H945   1.082       .  S
C934        H946   1.082       .  S
C935        C936   1.416       .  A
C935        H947   1.082       .  S
C936        H948   1.082       .  S
C937        C938   1.360       .  A
C937        H949   1.082       .  S
C938        H950   1.073       .  S
C939        C940   1.365       .  A
C939        H951   1.080       .  S
C940        H952   1.077       .  S
C941       C3237   1.475       .  S
C942       C3317   1.472       .  S
N955        C960   1.347       .  A
N955        C959   1.348       .  A
N955        H987   1.043       .  S
N956        C963   1.349       .  A
N956        C964   1.348       .  A
N957        C962   1.369       .  A
N957        C961   1.370       .  A
N957        H988   1.041       .  S
N958        C965   1.352       .  A
N958        C966   1.349       .  A
C959        C967   1.386       .  A
C959        C975   1.407       .  A
C960        C976   1.406       .  A
C960        C968   1.387       .  A
C961        C969   1.394       .  A
C961        C978   1.462       .  A
C962        C977   1.452       .  A
C962        C970   1.387       .  A
C963        C975   1.401       .  A
C963        C971   1.380       .  A
C964        C978   1.411       .  A
C964        C972   1.388       .  A
C965        C973   1.378       .  A
C965        C976   1.398       .  A
C966        C974   1.392       .  A
C966        C977   1.417       .  A
C967        C968   1.379       .  A
C967        H979   1.082       .  S
C968        H980   1.082       .  S
C969        C970   1.405       .  A
C969        H981   1.080       .  S
C970        H982   1.082       .  S
C971        C972   1.367       .  A
C971        H983   1.079       .  S
C972        H984   1.081       .  S
C973        C974   1.366       .  A
C973        H985   1.083       .  S
C974        H986   1.075       .  S
C975       C3333   1.483       .  S
C976       C3349   1.484       .  S
N989        C994   1.338       .  A
N989        C993   1.351       .  A
N989       H1021   1.043       .  S
N990        C997   1.347       .  A
N990        C998   1.341       .  A
N991        C996   1.372       .  A
N991        C995   1.367       .  A
N991       H1022   1.043       .  S
N992        C999   1.350       .  A
N992       C1000   1.351       .  A
C993       C1001   1.382       .  A
C993       C1009   1.401       .  A
C994       C1010   1.403       .  A
C994       C1002   1.392       .  A
C995       C1003   1.390       .  A
C995       C1012   1.456       .  A
C996       C1011   1.458       .  A
C996       C1004   1.390       .  A
C997       C1009   1.387       .  A
C997       C1005   1.365       .  A
C998       C1012   1.402       .  A
C998       C1006   1.393       .  A
C999       C1007   1.382       .  A
C999       C1010   1.399       .  A
C1000      C1008   1.383       .  A
C1000      C1011   1.414       .  A
C1001      C1002   1.372       .  A
C1001      H1013   1.081       .  S
C1002      H1014   1.082       .  S
C1003      C1004   1.409       .  A
C1003      H1015   1.082   1_455  S
C1004      H1016   1.082       .  S
C1005      C1006   1.374       .  A
C1005      H1017   1.076       .  S
C1006      H1018   1.079       .  S
C1007      C1008   1.370       .  A
C1007      H1019   1.083       .  S
C1008      H1020   1.072       .  S
C1009      C3378   1.485       .  S
C1010      C3221   1.465       .  S
C1012      C1994   1.519       .  S
C1023      C3186   1.478       .  S
C1023      N1024   1.372       .  A
C1023      N1028   1.342       .  A
N1024      C1025   1.373       .  A
C1025      C3170   1.482       .  S
C1025      N1026   1.359       .  A
N1026      C1027   1.346       .  A
C1027      C3154   1.457       .  S
C1027      N1028   1.332       .  A
N1029      C1034   1.345       .  A
N1029      C1033   1.339       .  A
N1029      H1061   1.035       .  S
N1030      C1037   1.350       .  A
N1030      C1038   1.348       .  A
N1031      C1036   1.362       .  A
N1031      C1035   1.370       .  A
N1031      H1062   1.037       .  S
N1032      C1039   1.351       .  A
N1032      C1040   1.348       .  A
C1033      C1041   1.389       .  A
C1033      C1049   1.402       .  A
C1034      C1050   1.401       .  A
C1034      C1042   1.386       .  A
C1035      C1043   1.389       .  A
C1035      C1052   1.452       .  A
C1036      C1051   1.450       .  A
C1036      C1044   1.389       .  A
C1037      C1049   1.411       .  A
C1037      C1045   1.388       .  A
C1038      C1052   1.407       .  A
C1038      C1046   1.388       .  A
C1039      C1047   1.380       .  A
C1039      C1050   1.405       .  A
C1040      C1048   1.384       .  A
C1040      C1051   1.408       .  A
C1041      C1042   1.378       .  A
C1041      H1053   1.081       .  S
C1042      H1054   1.082       .  S
C1043      C1044   1.405       .  A
C1043      H1055   1.082       .  S
C1044      H1056   1.082       .  S
C1045      C1046   1.374       .  A
C1045      H1057   1.082       .  S
C1046      H1058   1.080       .  S
C1047      C1048   1.353       .  A
C1047      H1059   1.081       .  S
C1048      H1060   1.073       .  S
C1049      C3157   1.463       .  S
C1050      C3138   1.484       .  S
C1063      C3090   1.469       .  S
C1063      N1064   1.355       .  A
C1063      N1068   1.355       .  A
N1064      C1065   1.346       .  A
C1065      C3125   1.446       .  S
C1065      N1066   1.349       .  A
N1066      C1067   1.348       .  A
C1067      C3106   1.469       .  S
C1067      N1068   1.356       .  A
C1069      C3061   1.461       .  S
C1069      N1070   1.356       .  A
C1069      N1074   1.353       .  A
N1070      C1071   1.353   1_554  A
C1071      C3077   1.465       .  S
C1071      N1072   1.356       .  A
N1072      C1073   1.354   1_556  A
C1073      C3042   1.493       .  S
C1073      N1074   1.359       .  A
C1075      C3141   1.477       .  S
C1075      N1076   1.347       .  A
C1075      N1080   1.364       .  A
N1076      C1077   1.342       .  A
C1077      C3010   1.451       .  S
C1077      N1078   1.348       .  A
N1078      C1079   1.359       .  A
C1079      C3026   1.495       .  S
C1079      N1080   1.366       .  A
N1081      C1086   1.339       .  A
N1081      C1085   1.350       .  A
N1081      H1113   1.044       .  S
N1082      C1089   1.345       .  A
N1082      C1090   1.336       .  A
N1083      C1088   1.371       .  A
N1083      C1087   1.372       .  A
N1083      H1114   1.041       .  S
N1084      C1091   1.352       .  A
N1084      C1092   1.355       .  A
C1085      C1093   1.385       .  A
C1085      C1101   1.403       .  A
C1086      C1102   1.400       .  A
C1086      C1094   1.389       .  A
C1087      C1095   1.390       .  A
C1087      C1104   1.462       .  A
C1088      C1103   1.464       .  A
C1088      C1096   1.390       .  A
C1089      C1101   1.389       .  A
C1089      C1097   1.378   1_554  A
C1090      C1104   1.398       .  A
C1090      C1098   1.382   1_554  A
C1091      C1099   1.384       .  A
C1091      C1102   1.407       .  A
C1092      C1100   1.389       .  A
C1092      C1103   1.422       .  A
C1093      C1094   1.379       .  A
C1093      H1105   1.082       .  S
C1094      H1106   1.082       .  S
C1095      C1096   1.411       .  A
C1095      H1107   1.082       .  S
C1096      H1108   1.082       .  S
C1097      C1098   1.371       .  A
C1097      H1109   1.081       .  S
C1098      H1110   1.072       .  S
C1099      C1100   1.370       .  A
C1099      H1111   1.083       .  S
C1100      H1112   1.078       .  S
C1101      C3045   1.482       .  S
C1102      C3013   1.470       .  S
N1115      C1120   1.344       .  A
N1115      C1119   1.357       .  A
N1115      H1147   1.038       .  S
N1116      C1123   1.332       .  A
N1116      C1124   1.336       .  A
N1117      C1122   1.372       .  A
N1117      C1121   1.379       .  A
N1117      H1148   1.034       .  S
N1118      C1125   1.352       .  A
N1118      C1126   1.361       .  A
C1119      C1127   1.381       .  A
C1119      C1135   1.412       .  A
C1120      C1136   1.406       .  A
C1120      C1128   1.387       .  A
C1121      C1129   1.391       .  A
C1121      C1138   1.482       .  A
C1122      C1137   1.484       .  A
C1122      C1130   1.395       .  A
C1123      C1135   1.382       .  A
C1123      C1131   1.387       .  A
C1124      C1138   1.399       .  A
C1124      C1132   1.388       .  A
C1125      C1133   1.384       .  A
C1125      C1136   1.422       .  A
C1126      C1134   1.390       .  A
C1126      C1137   1.433       .  A
C1127      C1128   1.367       .  A
C1127      H1139   1.076       .  S
C1128      H1140   1.080       .  S
C1129      C1130   1.422       .  A
C1129      H1141   1.081       .  S
C1130      H1142   1.082       .  S
C1131      C1132   1.380       .  A
C1131      H1143   1.082       .  S
C1132      H1144   1.083       .  S
C1133      C1134   1.371       .  A
C1133      H1145   1.082       .  S
C1134      H1146   1.080       .  S
C1135      C3029   1.489       .  S
C1136      C3093   1.478       .  S
N1149      C1154   1.357       .  A
N1149      C1153   1.345       .  A
N1149      H1181   1.041       .  S
N1150      C1157   1.349       .  A
N1150      C1158   1.361       .  A
N1151      C1156   1.351       .  A
N1151      C1155   1.351       .  A
N1151      H1182   1.038       .  S
N1152      C1159   1.339       .  A
N1152      C1160   1.336       .  A
C1153      C1161   1.389       .  A
C1153      C1169   1.406       .  A
C1154      C1170   1.414       .  A
C1154      C1162   1.385       .  A
C1155      C1163   1.389       .  A
C1155      C1172   1.429       .  A
C1156      C1171   1.425       .  A
C1156      C1164   1.388       .  A
C1157      C1169   1.419       .  A
C1157      C1165   1.389       .  A
C1158      C1172   1.421       .  A
C1158      C1166   1.384       .  A
C1159      C1167   1.386       .  A
C1159      C1170   1.374       .  A
C1160      C1168   1.379       .  A
C1160      C1171   1.387       .  A
C1161      C1162   1.378       .  A
C1161      H1173   1.082       .  S
C1162      H1174   1.081       .  S
C1163      C1164   1.402       .  A
C1163      H1175   1.082       .  S
C1164      H1176   1.082       .  S
C1165      C1166   1.370       .  A
C1165      H1177   1.081       .  S
C1166      H1178   1.080       .  S
C1167      C1168   1.376       .  A
C1167      H1179   1.082       .  S
C1168      H1180   1.074       .  S
C1169      C3122   1.477       .  S
C1170      C3074   1.476       .  S
C1172      C1265   1.507       .  S
N1183      C1188   1.347       .  A
N1183      C1187   1.343       .  A
N1183      H1215   1.038       .  S
N1184      C1191   1.343       .  A
N1184      C1192   1.342       .  A
N1185      C1190   1.369       .  A
N1185      C1189   1.382       .  A
N1185      H1216   1.040       .  S
N1186      C1193   1.361       .  A
N1186      C1194   1.354       .  A
C1187      C1195   1.384       .  A
C1187      C1203   1.401       .  A
C1188      C1204   1.409       .  A
C1188      C1196   1.388       .  A
C1189      C1197   1.387       .  A
C1189      C1206   1.467       .  A
C1190      C1205   1.471       .  A
C1190      C1198   1.394       .  A
C1191      C1203   1.395       .  A
C1191      C1199   1.387       .  A
C1192      C1206   1.389       .  A
C1192      C1200   1.386       .  A
C1193      C1201   1.379       .  A
C1193      C1204   1.419       .  A
C1194      C1202   1.397       .  A
C1194      C1205   1.431       .  A
C1195      C1196   1.381       .  A
C1195      H1207   1.082       .  S
C1196      H1208   1.082       .  S
C1197      C1198   1.410       .  A
C1197      H1209   1.082   1_655  S
C1198      H1210   1.082   1_655  S
C1199      C1200   1.365       .  A
C1199      H1211   1.082       .  S
C1200      H1212   1.082       .  S
C1201      C1202   1.365       .  A
C1201      H1213   1.082       .  S
C1202      H1214   1.077       .  S
C1203      C3109   1.460       .  S
C1204      C3173   1.500       .  S
N1217      C1222   1.342       .  A
N1217      C1221   1.351       .  A
N1217      H1249   1.045       .  S
N1218      C1225   1.336       .  A
N1218      C1226   1.334       .  A
N1219      C1224   1.362       .  A
N1219      C1223   1.371       .  A
N1219      H1250   1.040       .  S
N1220      C1227   1.355       .  A
N1220      C1228   1.351       .  A
C1221      C1229   1.385       .  A
C1221      C1237   1.408       .  A
C1222      C1238   1.412       .  A
C1222      C1230   1.391       .  A
C1223      C1231   1.388       .  A
C1223      C1240   1.459       .  A
C1224      C1239   1.458       .  A
C1224      C1232   1.387       .  A
C1225      C1237   1.386       .  A
C1225      C1233   1.380       .  A
C1226      C1240   1.397       .  A
C1226      C1234   1.389       .  A
C1227      C1235   1.379       .  A
C1227      C1238   1.403       .  A
C1228      C1236   1.383       .  A
C1228      C1239   1.415       .  A
C1229      C1230   1.384       .  A
C1229      H1241   1.082       .  S
C1230      H1242   1.082       .  S
C1231      C1232   1.412       .  A
C1231      H1243   1.082       .  S
C1232      H1244   1.075       .  S
C1233      C1234   1.376       .  A
C1233      H1245   1.077       .  S
C1234      H1246   1.080       .  S
C1235      C1236   1.376       .  A
C1235      H1247   1.080       .  S
C1236      H1248   1.081       .  S
C1237      C3189   1.498       .  S
C1238      C3058   1.481       .  S
O1251     Ni1257   1.969       .  S
O1251      C1272   1.295       .  A
O1252     Ni1275   1.960       .  S
O1252      C1261   1.304       .  A
O1253     Ni1257   1.871       .  S
O1253     Ni1275   1.891       .  S
O1253     Ni1269   1.879       .  S
O1253      H1276   0.967       .  S
C1254      O1271   1.296       .  A
C1254      O1263   1.298       .  A
C1254      C1873   1.502       .  S
O1255     Ni1274   1.944       .  S
O1255      C1261   1.288       .  A
O1256     Ni1274   1.938       .  S
O1256      C1258   1.273       .  A
Ni1257     O1260   1.950       .  S
Ni1257     O1262   1.949       .  S
C1258      O1268   1.282       .  A
C1258      C1680   1.552       .  S
O1259     Ni1275   1.985       .  S
O1259      C1265   1.314       .  A
O1260      C1265   1.300       .  A
O1262      C1264   1.268       .  A
O1263     Ni1274   1.953       .  S
C1264      O1270   1.272       .  A
H1266      O1267   0.967       .  S
O1267     Ni1275   1.870       .  S
O1267     Ni1269   1.872       .  S
O1267     Ni1274   1.862       .  S
O1268     Ni1269   2.003       .  S
Ni1269     O1273   1.962       .  S
Ni1269     O1271   1.924       .  S
O1270     Ni1275   2.018       .  S
C1272      O1273   1.300       .  A
C1272      C1417   1.533       .  S
O1277     Ni1283   1.984   1_545  S
O1277      C1298   1.299   1_455  A
O1278     Ni1301   1.944       .  S
O1278      C1287   1.308       .  A
O1279     Ni1283   1.826   1_545  S
O1279     Ni1301   1.841   1_545  S
O1279     Ni1295   1.894   1_455  S
O1279      H1302   0.968       .  S
C1280      O1297   1.328       .  A
C1280      O1289   1.293   1_545  A
C1280      C1976   1.541       .  S
O1281     Ni1300   1.992       .  S
O1281      C1287   1.299       .  A
O1282     Ni1300   1.932   1_545  S
O1282      C1284   1.294       .  A
Ni1283     O1286   1.916       .  S
Ni1283     O1288   1.922   1_455  S
C1284      O1294   1.292       .  A
C1284      C2087   1.552       .  S
O1285     Ni1301   2.042       .  S
O1285      C1291   1.329       .  A
O1286      C1291   1.290       .  A
O1288      C1290   1.292       .  A
O1289     Ni1300   1.919   1_655  S
C1290      O1296   1.295       .  A
C1291      C1714   1.545       .  S
H1292      O1293   0.967       .  S
O1293     Ni1301   1.883   1_655  S
O1293     Ni1295   1.841   1_565  S
O1293     Ni1300   1.821   1_655  S
O1294     Ni1295   2.013   1_455  S
Ni1295     O1299   1.945       .  S
Ni1295     O1297   2.033       .  S
O1296     Ni1301   2.013   1_655  S
C1298      O1299   1.304       .  A
C1298      C1485   1.531   1_655  S
C1303      C2978   1.468       .  S
C1303      N1304   1.349       .  A
C1303      N1308   1.359       .  A
N1304      C1305   1.348       .  A
C1305      C2997   1.476       .  S
C1305      N1306   1.354   1_545  A
N1306      C1307   1.360       .  A
C1307      C2962   1.487       .  S
C1307      N1308   1.364   1_565  A
C1309      C2946   1.483       .  S
C1309      N1310   1.351       .  A
C1309      N1314   1.369       .  A
N1310      C1311   1.340       .  A
C1311      C2917   1.441       .  S
C1311      N1312   1.341       .  A
N1312      C1313   1.350   1_545  A
C1313      C2930   1.466       .  S
C1313      N1314   1.361   1_565  A
C1315      C2866   1.458       .  S
C1315      N1316   1.362       .  A
C1315      N1320   1.359       .  A
N1316      C1317   1.359       .  A
C1317      C2898   1.480       .  S
C1317      N1318   1.348       .  A
N1318      C1319   1.352       .  A
C1319      C2882   1.486       .  S
C1319      N1320   1.351       .  A
N1321      C1326   1.336       .  A
N1321      C1325   1.344       .  A
N1321      H1353   1.036       .  S
N1322      C1329   1.330       .  A
N1322      C1330   1.330       .  A
N1323      C1328   1.362       .  A
N1323      C1327   1.383       .  A
N1323      H1354   1.039       .  S
N1324      C1331   1.363       .  A
N1324      C1332   1.361       .  A
C1325      C1333   1.387       .  A
C1325      C1341   1.405       .  A
C1326      C1342   1.393       .  A
C1326      C1334   1.387       .  A
C1327      C1335   1.389       .  A
C1327      C1344   1.471       .  A
C1328      C1343   1.467       .  A
C1328      C1336   1.393       .  A
C1329      C1341   1.395       .  A
C1329      C1337   1.386       .  A
C1330      C1344   1.391       .  A
C1330      C1338   1.390       .  A
C1331      C1339   1.372       .  A
C1331      C1342   1.416       .  A
C1332      C1340   1.401       .  A
C1332      C1343   1.444       .  A
C1333      C1334   1.379       .  A
C1333      H1345   1.082       .  S
C1334      H1346   1.083       .  S
C1335      C1336   1.414       .  A
C1335      H1347   1.082       .  S
C1336      H1348   1.082       .  S
C1337      C1338   1.383       .  A
C1337      H1349   1.082       .  S
C1338      H1350   1.082       .  S
C1339      C1340   1.357       .  A
C1339      H1351   1.082       .  S
C1340      H1352   1.072       .  S
C1341      C2914   1.453       .  S
C1342      C2885   1.486       .  S
N1355      C1360   1.353       .  A
N1355      C1359   1.348       .  A
N1355      H1387   1.038       .  S
N1356      C1363   1.348       .  A
N1356      C1364   1.344       .  A
N1357      C1362   1.369       .  A
N1357      C1361   1.362       .  A
N1357      H1388   1.040       .  S
N1358      C1365   1.341       .  A
N1358      C1366   1.339       .  A
C1359      C1367   1.388       .  A
C1359      C1375   1.414       .  A
C1360      C1376   1.416       .  A
C1360      C1368   1.387       .  A
C1361      C1369   1.387       .  A
C1361      C1378   1.427       .  A
C1362      C1377   1.452       .  A
C1362      C1370   1.389       .  A
C1363      C1375   1.409       .  A
C1363      C1371   1.387       .  A
C1364      C1378   1.402       .  A
C1364      C1372   1.384       .  A
C1365      C1373   1.380   1_545  A
C1365      C1376   1.400       .  A
C1366      C1374   1.390       .  A
C1366      C1377   1.411       .  A
C1367      C1368   1.375       .  A
C1367      H1379   1.082       .  S
C1368      H1380   1.079       .  S
C1369      C1370   1.395       .  A
C1369      H1381   1.083       .  S
C1370      H1382   1.080       .  S
C1371      C1372   1.371       .  A
C1371      H1383   1.082       .  S
C1372      H1384   1.083       .  S
C1373      C1374   1.370   1_565  A
C1373      H1385   1.083       .  S
C1374      H1386   1.081   1_545  S
C1375      C2869   1.482       .  S
C1376      C2965   1.477   1_545  S
C1389      C2850   1.447       .  S
C1389      N1390   1.351       .  A
C1389      N1394   1.349       .  A
N1390      C1391   1.351       .  A
C1391      C2821   1.468       .  S
C1391      N1392   1.357       .  A
N1392      C1393   1.354       .  A
C1393      C2834   1.474       .  S
C1393      N1394   1.355       .  A
N1395      C1400   1.347       .  A
N1395      C1399   1.349       .  A
N1395      H1427   1.040       .  S
N1396      C1403   1.352       .  A
N1396      C1404   1.345       .  A
N1397      C1402   1.368       .  A
N1397      C1401   1.363       .  A
N1397      H1428   1.039       .  S
N1398      C1405   1.350       .  A
N1398      C1406   1.344       .  A
C1399      C1407   1.382       .  A
C1399      C1415   1.403       .  A
C1400      C1416   1.413       .  A
C1400      C1408   1.394       .  A
C1401      C1409   1.389       .  A
C1401      C1418   1.450       .  A
C1402      C1417   1.454       .  A
C1402      C1410   1.390       .  A
C1403      C1415   1.386       .  A
C1403      C1411   1.368       .  A
C1404      C1418   1.412       .  A
C1404      C1412   1.386       .  A
C1405      C1413   1.386       .  A
C1405      C1416   1.412       .  A
C1406      C1414   1.388       .  A
C1406      C1417   1.410       .  A
C1407      C1408   1.377       .  A
C1407      H1419   1.082       .  S
C1408      H1420   1.082       .  S
C1409      C1410   1.406       .  A
C1409      H1421   1.082       .  S
C1410      H1422   1.081       .  S
C1411      C1412   1.365       .  A
C1411      H1423   1.078       .  S
C1412      H1424   1.074       .  S
C1413      C1414   1.381       .  A
C1413      H1425   1.083       .  S
C1414      H1426   1.082       .  S
C1415      C2901   1.481       .  S
C1416      C2818   1.480       .  S
N1429      C1434   1.359       .  A
N1429      C1433   1.348       .  A
N1429      H1461   1.042       .  S
N1430      C1437   1.349       .  A
N1430      C1438   1.364       .  A
N1431      C1436   1.351       .  A
N1431      C1435   1.348       .  A
N1431      H1462   1.041       .  S
N1432      C1439   1.338       .  A
N1432      C1440   1.335       .  A
C1433      C1441   1.391       .  A
C1433      C1449   1.414       .  A
C1434      C1450   1.414       .  A
C1434      C1442   1.383       .  A
C1435      C1443   1.385       .  A
C1435      C1452   1.419       .  A
C1436      C1451   1.424       .  A
C1436      C1444   1.390       .  A
C1437      C1449   1.422       .  A
C1437      C1445   1.390       .  A
C1438      C1452   1.423       .  A
C1438      C1446   1.384       .  A
C1439      C1447   1.385       .  A
C1439      C1450   1.386       .  A
C1440      C1448   1.386       .  A
C1440      C1451   1.401       .  A
C1441      C1442   1.380       .  A
C1441      H1453   1.083       .  S
C1442      H1454   1.082       .  S
C1443      C1444   1.398       .  A
C1443      H1455   1.082       .  S
C1444      H1456   1.082       .  S
C1445      C1446   1.371       .  A
C1445      H1457   1.082       .  S
C1446      H1458   1.080       .  S
C1447      C1448   1.384       .  A
C1447      H1459   1.082       .  S
C1448      H1460   1.082       .  S
C1449      C2994   1.474       .  S
C1450      C2933   1.489       .  S
N1463      C1468   1.349       .  A
N1463      C1467   1.349       .  A
N1463      H1495   1.039       .  S
N1464      C1471   1.336       .  A
N1464      C1472   1.335       .  A
N1465      C1470   1.352   1_655  A
N1465      C1469   1.372       .  A
N1465      H1496   1.045       .  S
N1466      C1473   1.344       .  A
N1466      C1474   1.345       .  A
C1467      C1475   1.390       .  A
C1467      C1483   1.420       .  A
C1468      C1484   1.403       .  A
C1468      C1476   1.381       .  A
C1469      C1477   1.380   1_655  A
C1469      C1486   1.428       .  A
C1470      C1485   1.425       .  A
C1470      C1478   1.394       .  A
C1471      C1483   1.407       .  A
C1471      C1479   1.390       .  A
C1472      C1486   1.387       .  A
C1472      C1480   1.382       .  A
C1473      C1481   1.384       .  A
C1473      C1484   1.404       .  A
C1474      C1482   1.383   1_655  A
C1474      C1485   1.404   1_655  A
C1475      C1476   1.381       .  A
C1475      H1487   1.082       .  S
C1476      H1488   1.079       .  S
C1477      C1478   1.386       .  A
C1477      H1489   1.082       .  S
C1478      H1490   1.083       .  S
C1479      C1480   1.381       .  A
C1479      H1491   1.082       .  S
C1480      H1492   1.082       .  S
C1481      C1482   1.374   1_655  A
C1481      H1493   1.075       .  S
C1482      H1494   1.082       .  S
C1483      C2853   1.476       .  S
C1484      C2949   1.489       .  S
C1486      C2000   1.507       .  S
N1497      C1502   1.350       .  A
N1497      C1501   1.344       .  A
N1497      H1529   1.029       .  S
N1498      C1505   1.354       .  A
N1498      C1506   1.351       .  A
N1499      C1504   1.368       .  A
N1499      C1503   1.369       .  A
N1499      H1530   1.034       .  S
N1500      C1507   1.353       .  A
N1500      C1508   1.346       .  A
C1501      C1509   1.390       .  A
C1501      C1517   1.411       .  A
C1502      C1518   1.409       .  A
C1502      C1510   1.386       .  A
C1503      C1511   1.389       .  A
C1503      C1520   1.454       .  A
C1504      C1519   1.452       .  A
C1504      C1512   1.388       .  A
C1505      C1517   1.409       .  A
C1505      C1513   1.379       .  A
C1506      C1520   1.427       .  A
C1506      C1514   1.392       .  A
C1507      C1515   1.382       .  A
C1507      C1518   1.410       .  A
C1508      C1516   1.393       .  A
C1508      C1519   1.419       .  A
C1509      C1510   1.369       .  A
C1509      H1521   1.081       .  S
C1510      H1522   1.082       .  S
C1511      C1512   1.402       .  A
C1511      H1523   1.082   1_556  S
C1512      H1524   1.082   1_556  S
C1513      C1514   1.362       .  A
C1513      H1525   1.083       .  S
C1514      H1526   1.076       .  S
C1515      C1516   1.363       .  A
C1515      H1527   1.082       .  S
C1516      H1528   1.083       .  S
C1517      C2837   1.476       .  S
C1518      C2981   1.483       .  S
C1531      C2802   1.488       .  S
C1531      N1532   1.362       .  A
C1531      N1536   1.358       .  A
N1532      C1533   1.363   1_455  A
C1533      C2786   1.476       .  S
C1533      N1534   1.354   1_655  A
N1534      C1535   1.350       .  A
C1535      C2773   1.483       .  S
C1535      N1536   1.351       .  A
N1537      C1542   1.344       .  A
N1537      C1541   1.348       .  A
N1537      H1569   1.043       .  S
N1538      C1545   1.340       .  A
N1538      C1546   1.336       .  A
N1539      C1544   1.378       .  A
N1539      C1543   1.382       .  A
N1539      H1570   1.043       .  S
N1540      C1547   1.358       .  A
N1540      C1548   1.357       .  A
C1541      C1549   1.389       .  A
C1541      C1557   1.410       .  A
C1542      C1558   1.395       .  A
C1542      C1550   1.384       .  A
C1543      C1551   1.393       .  A
C1543      C1560   1.485       .  A
C1544      C1559   1.483       .  A
C1544      C1552   1.394       .  A
C1545      C1557   1.387       .  A
C1545      C1553   1.379       .  A
C1546      C1560   1.401       .  A
C1546      C1554   1.395       .  A
C1547      C1555   1.370       .  A
C1547      C1558   1.397       .  A
C1548      C1556   1.376       .  A
C1548      C1559   1.424       .  A
C1549      C1550   1.371       .  A
C1549      H1561   1.079       .  S
C1550      H1562   1.082       .  S
C1551      C1552   1.422       .  A
C1551      H1563   1.082       .  S
C1552      H1564   1.082       .  S
C1553      C1554   1.377       .  A
C1553      H1565   1.082       .  S
C1554      H1566   1.083       .  S
C1555      C1556   1.361       .  A
C1555      H1567   1.079       .  S
C1556      H1568   1.062       .  S
C1557      C2757   1.488       .  S
C1558      C2770   1.475       .  S
C1571      C2706   1.454       .  S
C1571      N1572   1.348       .  A
C1571      N1576   1.351       .  A
N1572      C1573   1.351       .  A
C1573      C2722   1.472       .  S
C1573      N1574   1.362       .  A
N1574      C1575   1.357       .  A
C1575      C2738   1.495       .  S
C1575      N1576   1.359       .  A
C1577      C2754   1.477       .  S
C1577      N1578   1.361       .  A
C1577      N1582   1.352       .  A
N1578      C1579   1.364       .  A
C1579      C2690   1.463       .  S
C1579      N1580   1.351       .  A
N1580      C1581   1.349       .  A
C1581      C2674   1.451       .  S
C1581      N1582   1.346       .  A
N1583      C1588   1.348       .  A
N1583      C1587   1.331       .  A
N1583      H1615   1.040       .  S
N1584      C1591   1.353       .  A
N1584      C1592   1.358       .  A
N1585      C1590   1.375       .  A
N1585      C1589   1.373       .  A
N1585      H1616   1.035       .  S
N1586      C1593   1.340       .  A
N1586      C1594   1.328       .  A
C1587      C1595   1.389       .  A
C1587      C1603   1.391       .  A
C1588      C1604   1.401       .  A
C1588      C1596   1.382       .  A
C1589      C1597   1.393       .  A
C1589      C1606   1.476       .  A
C1590      C1605   1.474       .  A
C1590      C1598   1.392       .  A
C1591      C1603   1.414       .  A
C1591      C1599   1.380       .  A
C1592      C1606   1.430       .  A
C1592      C1600   1.393       .  A
C1593      C1601   1.381       .  A
C1593      C1604   1.400       .  A
C1594      C1602   1.395       .  A
C1594      C1605   1.397       .  A
C1595      C1596   1.377       .  A
C1595      H1607   1.082       .  S
C1596      H1608   1.081       .  S
C1597      C1598   1.419       .  A
C1597      H1609   1.082       .  S
C1598      H1610   1.082       .  S
C1599      C1600   1.365       .  A
C1599      H1611   1.082       .  S
C1600      H1612   1.080       .  S
C1601      C1602   1.381       .  A
C1601      H1613   1.082       .  S
C1602      H1614   1.079       .  S
C1603      C2677   1.457       .  S
C1604      C2709   1.478       .  S
C1617      C2658   1.468       .  S
C1617      N1618   1.359   1_455  A
C1617      N1622   1.359   1_455  A
N1618      C1619   1.353       .  A
C1619      C2645   1.493       .  S
C1619      N1620   1.348       .  A
N1620      C1621   1.355       .  A
C1621      C2626   1.459       .  S
C1621      N1622   1.358       .  A
N1623      C1628   1.352       .  A
N1623      C1627   1.341       .  A
N1623      H1655   1.031       .  S
N1624      C1631   1.358       .  A
N1624      C1632   1.360       .  A
N1625      C1630   1.369       .  A
N1625      C1629   1.366       .  A
N1625      H1656   1.037       .  S
N1626      C1633   1.347       .  A
N1626      C1634   1.342       .  A
C1627      C1635   1.388       .  A
C1627      C1643   1.405       .  A
C1628      C1644   1.416       .  A
C1628      C1636   1.387       .  A
C1629      C1637   1.388       .  A
C1629      C1646   1.450       .  A
C1630      C1645   1.452       .  A
C1630      C1638   1.389       .  A
C1631      C1643   1.423       .  A
C1631      C1639   1.380       .  A
C1632      C1646   1.429       .  A
C1632      C1640   1.387       .  A
C1633      C1641   1.383   1_455  A
C1633      C1644   1.410       .  A
C1634      C1642   1.392   1_455  A
C1634      C1645   1.420       .  A
C1635      C1636   1.376       .  A
C1635      H1647   1.082       .  S
C1636      H1648   1.082       .  S
C1637      C1638   1.401       .  A
C1637      H1649   1.082       .  S
C1638      H1650   1.081       .  S
C1639      C1640   1.356       .  A
C1639      H1651   1.081       .  S
C1640      H1652   1.075       .  S
C1641      C1642   1.376       .  A
C1641      H1653   1.079       .  S
C1642      H1654   1.082       .  S
C1643      C2693   1.476       .  S
C1644      C2642   1.499       .  S
C1645      C1990   1.539       .  S
N1657      C1662   1.344       .  A
N1657      C1661   1.342       .  A
N1657      H1689   1.046       .  S
N1658      C1665   1.342       .  A
N1658      C1666   1.341       .  A
N1659      C1664   1.365       .  A
N1659      C1663   1.377       .  A
N1659      H1690   1.041       .  S
N1660      C1667   1.358       .  A
N1660      C1668   1.344       .  A
C1661      C1669   1.388       .  A
C1661      C1677   1.394       .  A
C1662      C1678   1.388       .  A
C1662      C1670   1.382       .  A
C1663      C1671   1.387       .  A
C1663      C1680   1.460       .  A
C1664      C1679   1.462       .  A
C1664      C1672   1.394       .  A
C1665      C1677   1.394       .  A
C1665      C1673   1.377       .  A
C1666      C1680   1.415       .  A
C1666      C1674   1.382       .  A
C1667      C1675   1.375       .  A
C1667      C1678   1.397       .  A
C1668      C1676   1.399       .  A
C1668      C1679   1.417       .  A
C1669      C1670   1.373       .  A
C1669      H1681   1.081       .  S
C1670      H1682   1.083       .  S
C1671      C1672   1.410       .  A
C1671      H1683   1.082       .  S
C1672      H1684   1.082       .  S
C1673      C1674   1.378       .  A
C1673      H1685   1.082       .  S
C1674      H1686   1.063       .  S
C1675      C1676   1.368       .  A
C1675      H1687   1.083       .  S
C1676      H1688   1.081       .  S
C1677      C2629   1.495       .  S
C1678      C2789   1.493       .  S
N1691      C1696   1.353       .  A
N1691      C1695   1.348       .  A
N1691      H1723   1.039       .  S
N1692      C1699   1.358       .  A
N1692      C1700   1.358       .  A
N1693      C1698   1.375       .  A
N1693      C1697   1.372       .  A
N1693      H1724   1.029       .  S
N1694      C1701   1.344       .  A
N1694      C1702   1.341       .  A
C1695      C1703   1.389       .  A
C1695      C1711   1.409       .  A
C1696      C1712   1.408       .  A
C1696      C1704   1.385       .  A
C1697      C1705   1.392       .  A
C1697      C1714   1.474       .  A
C1698      C1713   1.471       .  A
C1698      C1706   1.390       .  A
C1699      C1711   1.412       .  A
C1699      C1707   1.380       .  A
C1700      C1714   1.436       .  A
C1700      C1708   1.394       .  A
C1701      C1709   1.384       .  A
C1701      C1712   1.397       .  A
C1702      C1710   1.390       .  A
C1702      C1713   1.409       .  A
C1703      C1704   1.372       .  A
C1703      H1715   1.082       .  S
C1704      H1716   1.083       .  S
C1705      C1706   1.410       .  A
C1705      H1717   1.082       .  S
C1706      H1718   1.082       .  S
C1707      C1708   1.361       .  A
C1707      H1719   1.081       .  S
C1708      H1720   1.077       .  S
C1709      C1710   1.371       .  A
C1709      H1721   1.082       .  S
C1710      H1722   1.082       .  S
C1711      C2805   1.480       .  S
C1712      C2741   1.484       .  S
N1725      C1730   1.351       .  A
N1725      C1729   1.352       .  A
N1725      H1757   1.036       .  S
N1726      C1733   1.338       .  A
N1726      C1734   1.335       .  A
N1727      C1732   1.377       .  A
N1727      C1731   1.365       .  A
N1727      H1758   1.040       .  S
N1728      C1735   1.344       .  A
N1728      C1736   1.349       .  A
C1729      C1737   1.385       .  A
C1729      C1745   1.412       .  A
C1730      C1746   1.419       .  A
C1730      C1738   1.389       .  A
C1731      C1739   1.386   1_556  A
C1731      C1748   1.444       .  A
C1732      C1747   1.467       .  A
C1732      C1740   1.392   1_556  A
C1733      C1745   1.403       .  A
C1733      C1741   1.382       .  A
C1734      C1748   1.412       .  A
C1734      C1742   1.393       .  A
C1735      C1743   1.390       .  A
C1735      C1746   1.420       .  A
C1736      C1744   1.386       .  A
C1736      C1747   1.416       .  A
C1737      C1738   1.378       .  A
C1737      H1749   1.082       .  S
C1738      H1750   1.082       .  S
C1739      C1740   1.396       .  A
C1739      H1751   1.082       .  S
C1740      H1752   1.080       .  S
C1741      C1742   1.374       .  A
C1741      H1753   1.074       .  S
C1742      H1754   1.082       .  S
C1743      C1744   1.371       .  A
C1743      H1755   1.080       .  S
C1744      H1756   1.080       .  S
C1745      C2725   1.479       .  S
C1746      C2661   1.481       .  S
C1759      C2594   1.471       .  S
C1759      N1760   1.361       .  A
C1759      N1764   1.358       .  A
N1760      C1761   1.354       .  A
C1761      C2610   1.469       .  S
C1761      N1762   1.354       .  A
N1762      C1763   1.350       .  A
C1763      C2578   1.460       .  S
C1763      N1764   1.359       .  A
N1765      C1770   1.351       .  A
N1765      C1769   1.338       .  A
N1765      H1797   1.043       .  S
N1766      C1773   1.358       .  A
N1766      C1774   1.366       .  A
N1767      C1772   1.381       .  A
N1767      C1771   1.377       .  A
N1767      H1798   1.042       .  S
N1768      C1775   1.338       .  A
N1768      C1776   1.324       .  A
C1769      C1777   1.385       .  A
C1769      C1785   1.388       .  A
C1770      C1786   1.415       .  A
C1770      C1778   1.387       .  A
C1771      C1779   1.392       .  A
C1771      C1788   1.476       .  A
C1772      C1787   1.475       .  A
C1772      C1780   1.391       .  A
C1773      C1785   1.424       .  A
C1773      C1781   1.381       .  A
C1774      C1788   1.439       .  A
C1774      C1782   1.392       .  A
C1775      C1783   1.380       .  A
C1775      C1786   1.391       .  A
C1776      C1784   1.395       .  A
C1776      C1787   1.393       .  A
C1777      C1778   1.374       .  A
C1777      H1789   1.083       .  S
C1778      H1790   1.075       .  S
C1779      C1780   1.415       .  A
C1779      H1791   1.082       .  S
C1780      H1792   1.082       .  S
C1781      C1782   1.365       .  A
C1781      H1793   1.082       .  S
C1782      H1794   1.077       .  S
C1783      C1784   1.382       .  A
C1783      H1795   1.083       .  S
C1784      H1796   1.080       .  S
C1785      C2562   1.473       .  S
C1786      C2597   1.477       .  S
C1799      C2530   1.488       .  S
C1799      N1800   1.368       .  A
C1799      N1804   1.352       .  A
N1800      C1801   1.368       .  A
C1801      C2546   1.488       .  S
C1801      N1802   1.357       .  A
N1802      C1803   1.346       .  A
C1803      C2565   1.456       .  S
C1803      N1804   1.341       .  A
C1805      C2498   1.448       .  S
C1805      N1806   1.354       .  A
C1805      N1810   1.350       .  A
N1806      C1807   1.351       .  A
C1807      C2517   1.442   1_655  S
C1807      N1808   1.348       .  A
N1808      C1809   1.348       .  A
C1809      C2482   1.478       .  S
C1809      N1810   1.352       .  A
C1811      C2453   1.453       .  S
C1811      N1812   1.357       .  A
C1811      N1816   1.352       .  A
N1812      C1813   1.360       .  A
C1813      C2466   1.484       .  S
C1813      N1814   1.351       .  A
N1814      C1815   1.347       .  A
C1815      C2434   1.456   1_455  S
C1815      N1816   1.346       .  A
N1817      C1822   1.348       .  A
N1817      C1821   1.342       .  A
N1817      H1849   1.036       .  S
N1818      C1825   1.354       .  A
N1818      C1826   1.349       .  A
N1819      C1824   1.379       .  A
N1819      C1823   1.373       .  A
N1819      H1850   1.037       .  S
N1820      C1827   1.344       .  A
N1820      C1828   1.332       .  A
C1821      C1829   1.387       .  A
C1821      C1837   1.404       .  A
C1822      C1838   1.401       .  A
C1822      C1830   1.387       .  A
C1823      C1831   1.395       .  A
C1823      C1840   1.478       .  A
C1824      C1839   1.471       .  A
C1824      C1832   1.387       .  A
C1825      C1837   1.396       .  A
C1825      C1833   1.371       .  A
C1826      C1840   1.431       .  A
C1826      C1834   1.400       .  A
C1827      C1835   1.386       .  A
C1827      C1838   1.406       .  A
C1828      C1836   1.388       .  A
C1828      C1839   1.391       .  A
C1829      C1830   1.373       .  A
C1829      H1841   1.082       .  S
C1830      H1842   1.082       .  S
C1831      C1832   1.414       .  A
C1831      H1843   1.082       .  S
C1832      H1844   1.082       .  S
C1833      C1834   1.354       .  A
C1833      H1845   1.083       .  S
C1834      H1846   1.070       .  S
C1835      C1836   1.376       .  A
C1835      H1847   1.075       .  S
C1836      H1848   1.083       .  S
C1837      C2514   1.471       .  S
C1838      C2469   1.484       .  S
N1851      C1856   1.343       .  A
N1851      C1855   1.343       .  A
N1851      H1883   1.041       .  S
N1852      C1859   1.346       .  A
N1852      C1860   1.341       .  A
N1853      C1858   1.353       .  A
N1853      C1857   1.354       .  A
N1853      H1884   1.042       .  S
N1854      C1861   1.351       .  A
N1854      C1862   1.351       .  A
C1855      C1863   1.389       .  A
C1855      C1871   1.405       .  A
C1856      C1872   1.397       .  A
C1856      C1864   1.385       .  A
C1857      C1865   1.383       .  A
C1857      C1874   1.415       .  A
C1858      C1873   1.426       .  A
C1858      C1866   1.393       .  A
C1859      C1871   1.397       .  A
C1859      C1867   1.381       .  A
C1860      C1874   1.403       .  A
C1860      C1868   1.388       .  A
C1861      C1869   1.376       .  A
C1861      C1872   1.403       .  A
C1862      C1870   1.392       .  A
C1862      C1873   1.420       .  A
C1863      C1864   1.382       .  A
C1863      H1875   1.082       .  S
C1864      H1876   1.082       .  S
C1865      C1866   1.388       .  A
C1865      H1877   1.082       .  S
C1866      H1878   1.079       .  S
C1867      C1868   1.360       .  A
C1867      H1879   1.081       .  S
C1868      H1880   1.073       .  S
C1869      C1870   1.363       .  A
C1869      H1881   1.080       .  S
C1870      H1882   1.077       .  S
C1871      C2437   1.472       .  S
C1872      C2533   1.478       .  S
C1874      C2008   1.472       .  S
N1885      C1890   1.349       .  A
N1885      C1889   1.337       .  A
N1885      H1917   1.040       .  S
N1886      C1893   1.351       .  A
N1886      C1894   1.351       .  A
N1887      C1892   1.372       .  A
N1887      C1891   1.370       .  A
N1887      H1918   1.042       .  S
N1888      C1895   1.345       .  A
N1888      C1896   1.340       .  A
C1889      C1897   1.388       .  A
C1889      C1905   1.399       .  A
C1890      C1906   1.409       .  A
C1890      C1898   1.386       .  A
C1891      C1899   1.392       .  A
C1891      C1908   1.463       .  A
C1892      C1907   1.461       .  A
C1892      C1900   1.390       .  A
C1893      C1905   1.410       .  A
C1893      C1901   1.388       .  A
C1894      C1908   1.405       .  A
C1894      C1902   1.387       .  A
C1895      C1903   1.387       .  A
C1895      C1906   1.403       .  A
C1896      C1904   1.386       .  A
C1896      C1907   1.390       .  A
C1897      C1898   1.386       .  A
C1897      H1909   1.082       .  S
C1898      H1910   1.082       .  S
C1899      C1900   1.414       .  A
C1899      H1911   1.082   1_554  S
C1900      H1912   1.082   1_554  S
C1901      C1902   1.363       .  A
C1901      H1913   1.082       .  S
C1902      H1914   1.082       .  S
C1903      C1904   1.367       .  A
C1903      H1915   1.082       .  S
C1904      H1916   1.082       .  S
C1905      C2501   1.467       .  S
C1906      C2613   1.487       .  S
N1919      C1924   1.336       .  A
N1919      C1923   1.347       .  A
N1919      H1951   1.044       .  S
N1920      C1927   1.332       .  A
N1920      C1928   1.328       .  A
N1921      C1926   1.357       .  A
N1921      C1925   1.371       .  A
N1921      H1952   1.043       .  S
N1922      C1929   1.352       .  A
N1922      C1930   1.355       .  A
C1923      C1931   1.383       .  A
C1923      C1939   1.397       .  A
C1924      C1940   1.396       .  A
C1924      C1932   1.392       .  A
C1925      C1933   1.389       .  A
C1925      C1942   1.454       .  A
C1926      C1941   1.449       .  A
C1926      C1934   1.392       .  A
C1927      C1939   1.388       .  A
C1927      C1935   1.365       .  A
C1928      C1942   1.390       .  A
C1928      C1936   1.389       .  A
C1929      C1937   1.381       .  A
C1929      C1940   1.411       .  A
C1930      C1938   1.394       .  A
C1930      C1941   1.427       .  A
C1931      C1932   1.369       .  A
C1931      H1943   1.081       .  S
C1932      H1944   1.082       .  S
C1933      C1934   1.411       .  A
C1933      H1945   1.082       .  S
C1934      H1946   1.082       .  S
C1935      C1936   1.373       .  A
C1935      H1947   1.057       .  S
C1936      H1948   1.083       .  S
C1937      C1938   1.378       .  A
C1937      H1949   1.083       .  S
C1938      H1950   1.081       .  S
C1939      C2549   1.468       .  S
C1940      C2485   1.463       .  S
N1953      C1958   1.343       .  A
N1953      C1957   1.342       .  A
N1953      H1985   1.040       .  S
N1954      C1961   1.354       .  A
N1954      C1962   1.355       .  A
N1955      C1960   1.374       .  A
N1955      C1959   1.372       .  A
N1955      H1986   1.041       .  S
N1956      C1963   1.352       .  A
N1956      C1964   1.347       .  A
C1957      C1965   1.389       .  A
C1957      C1973   1.402       .  A
C1958      C1974   1.398       .  A
C1958      C1966   1.384       .  A
C1959      C1967   1.392   1_545  A
C1959      C1976   1.464       .  A
C1960      C1975   1.461       .  A
C1960      C1968   1.389   1_545  A
C1961      C1973   1.415       .  A
C1961      C1969   1.380       .  A
C1962      C1976   1.416       .  A
C1962      C1970   1.388       .  A
C1963      C1971   1.388       .  A
C1963      C1974   1.409       .  A
C1964      C1972   1.387       .  A
C1964      C1975   1.402       .  A
C1965      C1966   1.383       .  A
C1965      H1977   1.082       .  S
C1966      H1978   1.082       .  S
C1967      C1968   1.409       .  A
C1967      H1979   1.082       .  S
C1968      H1980   1.082       .  S
C1969      C1970   1.368       .  A
C1969      H1981   1.080       .  S
C1970      H1982   1.079       .  S
C1971      C1972   1.363       .  A
C1971      H1983   1.081       .  S
C1972      H1984   1.083       .  S
C1973      C2450   1.485       .  S
C1974      C2581   1.476       .  S
O1987     Ni1993   1.941       .  S
O1987      C2008   1.289       .  A
O1988     Ni2011   1.986   1_455  S
O1988      C1997   1.315       .  A
O1989     Ni1993   1.805       .  S
O1989     Ni2011   1.854       .  S
O1989     Ni2005   1.859       .  S
O1989      H2012   0.966       .  S
C1990      O2007   1.297       .  A
C1990      O1999   1.298       .  A
O1991     Ni2010   1.907       .  S
O1991      C1997   1.284       .  A
O1992     Ni2010   1.919       .  S
O1992      C1994   1.274       .  A
Ni1993     O1996   1.878       .  S
Ni1993     O1998   1.893       .  S
C1994      O2004   1.273   1_455  A
O1995     Ni2011   2.028       .  S
O1995      C2001   1.330       .  A
O1996      C2001   1.286       .  A
C1997      C2161   1.478       .  S
O1998      C2000   1.276       .  A
O1999     Ni2010   1.986       .  S
C2000      O2006   1.284       .  A
H2002      O2003   0.966       .  S
O2003     Ni2011   1.878   1_455  S
O2003     Ni2005   1.839   1_455  S
O2003     Ni2010   1.825       .  S
O2004     Ni2005   1.970       .  S
Ni2005     O2009   1.917       .  S
Ni2005     O2007   1.943   1_655  S
O2006     Ni2011   1.990       .  S
C2008      O2009   1.288       .  A
C2013      C2405   1.470       .  S
C2013      N2014   1.355   1_455  A
C2013      N2018   1.359   1_556  A
N2014      C2015   1.348   1_556  A
C2015      C2418   1.464       .  S
C2015      N2016   1.351       .  A
N2016      C2017   1.353       .  A
C2017      C2386   1.473   1_655  S
C2017      N2018   1.361   1_655  A
N2019      C2024   1.348       .  A
N2019      C2023   1.344       .  A
N2019      H2051   1.038       .  S
N2020      C2027   1.351       .  A
N2020      C2028   1.343       .  A
N2021      C2026   1.359       .  A
N2021      C2025   1.358       .  A
N2021      H2052   1.040       .  S
N2022      C2029   1.346       .  A
N2022      C2030   1.342       .  A
C2023      C2031   1.389       .  A
C2023      C2039   1.412       .  A
C2024      C2040   1.416       .  A
C2024      C2032   1.387       .  A
C2025      C2033   1.393       .  A
C2025      C2042   1.447       .  A
C2026      C2041   1.440       .  A
C2026      C2034   1.388       .  A
C2027      C2039   1.415       .  A
C2027      C2035   1.387       .  A
C2028      C2042   1.409       .  A
C2028      C2036   1.387       .  A
C2029      C2037   1.390       .  A
C2029      C2040   1.402       .  A
C2030      C2038   1.383       .  A
C2030      C2041   1.399       .  A
C2031      C2032   1.389       .  A
C2031      H2043   1.082       .  S
C2032      H2044   1.082       .  S
C2033      C2034   1.408       .  A
C2033      H2045   1.081       .  S
C2034      H2046   1.082       .  S
C2035      C2036   1.381       .  A
C2035      H2047   1.083       .  S
C2036      H2048   1.082       .  S
C2037      C2038   1.377       .  A
C2037      H2049   1.083       .  S
C2038      H2050   1.082       .  S
C2039      C2389   1.477       .  S
C2040      C2370   1.489       .  S
C2053      C2322   1.452       .  S
C2053      N2054   1.349       .  A
C2053      N2058   1.347       .  A
N2054      C2055   1.358       .  A
C2055      C2341   1.467   1_455  S
C2055      N2056   1.360       .  A
N2056      C2057   1.357       .  A
C2057      C2357   1.475   1_545  S
C2057      N2058   1.340       .  A
C2059      C2293   1.474       .  S
C2059      N2060   1.352       .  A
C2059      N2064   1.354       .  A
N2060      C2061   1.356       .  A
C2061      C2309   1.479       .  S
C2061      N2062   1.362       .  A
N2062      C2063   1.362       .  A
C2063      C2373   1.493       .  S
C2063      N2064   1.356       .  A
N2065      C2070   1.336       .  A
N2065      C2069   1.344       .  A
N2065      H2097   1.044       .  S
N2066      C2073   1.336       .  A
N2066      C2074   1.325       .  A
N2067      C2072   1.373       .  A
N2067      C2071   1.383       .  A
N2067      H2098   1.043       .  S
N2068      C2075   1.355       .  A
N2068      C2076   1.352       .  A
C2069      C2077   1.384       .  A
C2069      C2085   1.402       .  A
C2070      C2086   1.399       .  A
C2070      C2078   1.390       .  A
C2071      C2079   1.392       .  A
C2071      C2088   1.480       .  A
C2072      C2087   1.477       .  A
C2072      C2080   1.393       .  A
C2073      C2085   1.387       .  A
C2073      C2081   1.377       .  A
C2074      C2088   1.401       .  A
C2074      C2082   1.398       .  A
C2075      C2083   1.380       .  A
C2075      C2086   1.416       .  A
C2076      C2084   1.395       .  A
C2076      C2087   1.428       .  A
C2077      C2078   1.382       .  A
C2077      H2089   1.082       .  S
C2078      H2090   1.082       .  S
C2079      C2080   1.419       .  A
C2079      H2091   1.082       .  S
C2080      H2092   1.082       .  S
C2081      C2082   1.381       .  A
C2081      H2093   1.083       .  S
C2082      H2094   1.076       .  S
C2083      C2084   1.374       .  A
C2083      H2095   1.082       .  S
C2084      H2096   1.078       .  S
C2085      C2290   1.464       .  S
C2086      C2325   1.484       .  S
C2099      C2258   1.470       .  S
C2099      N2100   1.354   1_565  A
C2099      N2104   1.362       .  A
N2100      C2101   1.340       .  A
C2101      C2277   1.447   1_554  S
C2101      N2102   1.348   1_554  A
N2102      C2103   1.354       .  A
C2103      C2242   1.486       .  S
C2103      N2104   1.366   1_546  A
N2105      C2110   1.346       .  A
N2105      C2109   1.349       .  A
N2105      H2137   1.044       .  S
N2106      C2113   1.343       .  A
N2106      C2114   1.339       .  A
N2107      C2112   1.371       .  A
N2107      C2111   1.376       .  A
N2107      H2138   1.041       .  S
N2108      C2115   1.359       .  A
N2108      C2116   1.356       .  A
C2109      C2117   1.386       .  A
C2109      C2125   1.411       .  A
C2110      C2126   1.398       .  A
C2110      C2118   1.383       .  A
C2111      C2119   1.390       .  A
C2111      C2128   1.468       .  A
C2112      C2127   1.468       .  A
C2112      C2120   1.392       .  A
C2113      C2125   1.386       .  A
C2113      C2121   1.377   1_554  A
C2114      C2128   1.404       .  A
C2114      C2122   1.396   1_554  A
C2115      C2123   1.378       .  A
C2115      C2126   1.408       .  A
C2116      C2124   1.389       .  A
C2116      C2127   1.430       .  A
C2117      C2118   1.380       .  A
C2117      H2129   1.080       .  S
C2118      H2130   1.082       .  S
C2119      C2120   1.414       .  A
C2119      H2131   1.082       .  S
C2120      H2132   1.082       .  S
C2121      C2122   1.371       .  A
C2121      H2133   1.083       .  S
C2122      H2134   1.080       .  S
C2123      C2124   1.362       .  A
C2123      H2135   1.082       .  S
C2124      H2136   1.075       .  S
C2125      C2245   1.479   1_554  S
C2126      C2306   1.484       .  S
N2139      C2144   1.349       .  A
N2139      C2143   1.341       .  A
N2139      H2171   1.042       .  S
N2140      C2147   1.349       .  A
N2140      C2148   1.357       .  A
N2141      C2146   1.354       .  A
N2141      C2145   1.354       .  A
N2141      H2172   1.039       .  S
N2142      C2149   1.349       .  A
N2142      C2150   1.335       .  A
C2143      C2151   1.388       .  A
C2143      C2159   1.398       .  A
C2144      C2160   1.406       .  A
C2144      C2152   1.386       .  A
C2145      C2153   1.387       .  A
C2145      C2162   1.427       .  A
C2146      C2161   1.425       .  A
C2146      C2154   1.389       .  A
C2147      C2159   1.416       .  A
C2147      C2155   1.388       .  A
C2148      C2162   1.420       .  A
C2148      C2156   1.387       .  A
C2149      C2157   1.379       .  A
C2149      C2160   1.396       .  A
C2150      C2158   1.387       .  A
C2150      C2161   1.402       .  A
C2151      C2152   1.378       .  A
C2151      H2163   1.082       .  S
C2152      H2164   1.082       .  S
C2153      C2154   1.398       .  A
C2153      H2165   1.082       .  S
C2154      H2166   1.082       .  S
C2155      C2156   1.373       .  A
C2155      H2167   1.082       .  S
C2156      H2168   1.082       .  S
C2157      C2158   1.366       .  A
C2157      H2169   1.083       .  S
C2158      H2170   1.069       .  S
C2159      C2274   1.464       .  S
C2160      C2402   1.483       .  S
N2173      C2178   1.352       .  A
N2173      C2177   1.357       .  A
N2173      H2205   1.042       .  S
N2174      C2181   1.332       .  A
N2174      C2182   1.338       .  A
N2175      C2180   1.345       .  A
N2175      C2179   1.355       .  A
N2175      H2206   1.044       .  S
N2176      C2183   1.369       .  A
N2176      C2184   1.369       .  A
C2177      C2185   1.380       .  A
C2177      C2193   1.402       .  A
C2178      C2194   1.419       .  A
C2178      C2186   1.392       .  A
C2179      C2187   1.386       .  A
C2179      C2196   1.413       .  A
C2180      C2195   1.402       .  A
C2180      C2188   1.386       .  A
C2181      C2193   1.386       .  A
C2181      C2189   1.386       .  A
C2182      C2196   1.397       .  A
C2182      C2190   1.380       .  A
C2183      C2191   1.389       .  A
C2183      C2194   1.455       .  A
C2184      C2192   1.389       .  A
C2184      C2195   1.455       .  A
C2185      C2186   1.355       .  A
C2185      H2197   1.083       .  S
C2186      H2198   1.077       .  S
C2187      C2188   1.368       .  A
C2187      H2199   1.082       .  S
C2188      H2200   1.077       .  S
C2189      C2190   1.376       .  A
C2189      H2201   1.082       .  S
C2190      H2202   1.076       .  S
C2191      C2192   1.405       .  A
C2191      H2203   1.082       .  S
C2192      H2204   1.082       .  S
C2193      C2354   1.477       .  S
C2196      C2261   1.488       .  S
N2207      C2212   1.344       .  A
N2207      C2211   1.340       .  A
N2207      H2239   1.039       .  S
N2208      C2215   1.350       .  A
N2208      C2216   1.348       .  A
N2209      C2214   1.369       .  A
N2209      C2213   1.366       .  A
N2209      H2240   1.041       .  S
N2210      C2217   1.351       .  A
N2210      C2218   1.346       .  A
C2211      C2219   1.386       .  A
C2211      C2227   1.398       .  A
C2212      C2228   1.401       .  A
C2212      C2220   1.386       .  A
C2213      C2221   1.393       .  A
C2213      C2230   1.458       .  A
C2214      C2229   1.453       .  A
C2214      C2222   1.389       .  A
C2215      C2227   1.410       .  A
C2215      C2223   1.386       .  A
C2216      C2230   1.403       .  A
C2216      C2224   1.387       .  A
C2217      C2225   1.388       .  A
C2217      C2228   1.408       .  A
C2218      C2226   1.387       .  A
C2218      C2229   1.402       .  A
C2219      C2220   1.379       .  A
C2219      H2231   1.082       .  S
C2220      H2232   1.082       .  S
C2221      C2222   1.411       .  A
C2221      H2233   1.082       .  S
C2222      H2234   1.082       .  S
C2223      C2224   1.369       .  A
C2223      H2235   1.082       .  S
C2224      H2236   1.081       .  S
C2225      C2226   1.363       .  A
C2225      H2237   1.082       .  S
C2226      H2238   1.082       .  S
C2227      C2338   1.472       .  S
C2228      C2421   1.475       .  S
C2241      C2242   1.411       .  A
C2241      C2246   1.398       .  A
C2241      H2248   1.084       .  S
C2242      C2243   1.408       .  A
C2243      C2244   1.400       .  A
C2243      C2250   1.503   1_545  S
C2244      C2245   1.408       .  A
C2244      H2249   1.084   1_556  S
C2245      C2246   1.406       .  A
C2246      C2247   1.505       .  S
C2247      H2251   1.110       .  S
C2247      H2252   1.110       .  S
C2247      H2253   1.111       .  S
C2250      H2254   1.110       .  S
C2250      H2255   1.110   1_556  S
C2250      H2256   1.109       .  S
C2257      C2258   1.402       .  A
C2257      C2262   1.395       .  A
C2257      H2264   1.085   1_565  S
C2258      C2259   1.405       .  A
C2259      C2260   1.402       .  A
C2259      C2266   1.504       .  S
C2260      C2261   1.407       .  A
C2260      H2265   1.082       .  S
C2261      C2262   1.418       .  A
C2262      C2263   1.511       .  S
C2263      H2267   1.111       .  S
C2263      H2268   1.105       .  S
C2263      H2269   1.105       .  S
C2266      H2270   1.110       .  S
C2266      H2271   1.110       .  S
C2266      H2272   1.104       .  S
C2273      C2274   1.394       .  A
C2273      C2278   1.389   1_556  A
C2273      H2280   1.085       .  S
C2274      C2275   1.406       .  A
C2275      C2276   1.396       .  A
C2275      C2282   1.500       .  S
C2276      C2277   1.395       .  A
C2276      H2281   1.084       .  S
C2277      C2278   1.412   1_556  A
C2278      C2279   1.503       .  S
C2279      H2283   1.110       .  S
C2279      H2284   1.110       .  S
C2279      H2285   1.109       .  S
C2282      H2286   1.108       .  S
C2282      H2287   1.110       .  S
C2282      H2288   1.107       .  S
C2289      C2290   1.398       .  A
C2289      C2294   1.397       .  A
C2289      H2296   1.085       .  S
C2290      C2291   1.406       .  A
C2291      C2292   1.397       .  A
C2291      C2298   1.507       .  S
C2292      C2293   1.406       .  A
C2292      H2297   1.082       .  S
C2293      C2294   1.414       .  A
C2294      C2295   1.506       .  S
C2295      H2299   1.111       .  S
C2295      H2300   1.110       .  S
C2295      H2301   1.110       .  S
C2298      H2302   1.109       .  S
C2298      H2303   1.111       .  S
C2298      H2304   1.111       .  S
C2305      C2306   1.398       .  A
C2305      C2310   1.400       .  A
C2305      H2312   1.085       .  S
C2306      C2307   1.412       .  A
C2307      C2308   1.401       .  A
C2307      C2314   1.497       .  S
C2308      C2309   1.400       .  A
C2308      H2313   1.084       .  S
C2309      C2310   1.419       .  A
C2310      C2311   1.507       .  S
C2311      H2315   1.111       .  S
C2311      H2316   1.108       .  S
C2311      H2317   1.110       .  S
C2314      H2318   1.110       .  S
C2314      H2319   1.108       .  S
C2314      H2320   1.108       .  S
C2321      C2322   1.393       .  A
C2321      C2326   1.384       .  A
C2321      H2328   1.087       .  S
C2322      C2323   1.410       .  A
C2323      C2324   1.404       .  A
C2323      C2330   1.506   1_455  S
C2324      C2325   1.407       .  A
C2324      H2329   1.082       .  S
C2325      C2326   1.421       .  A
C2326      C2327   1.512       .  S
C2327      H2331   1.111       .  S
C2327      H2332   1.106       .  S
C2327      H2333   1.110       .  S
C2330      H2334   1.110       .  S
C2330      H2335   1.110       .  S
C2330      H2336   1.109       .  S
C2337      C2338   1.401       .  A
C2337      C2342   1.394       .  A
C2337      H2344   1.085       .  S
C2338      C2339   1.405       .  A
C2339      C2340   1.396       .  A
C2339      C2346   1.499   1_545  S
C2340      C2341   1.405       .  A
C2340      H2345   1.084   1_545  S
C2341      C2342   1.415       .  A
C2342      C2343   1.509   1_655  S
C2343      H2347   1.109   1_455  S
C2343      H2348   1.110       .  S
C2343      H2349   1.109       .  S
C2346      H2350   1.110       .  S
C2346      H2351   1.107       .  S
C2346      H2352   1.110       .  S
C2353      C2354   1.393       .  A
C2353      C2358   1.400       .  A
C2353      H2360   1.084       .  S
C2354      C2355   1.422       .  A
C2355      C2356   1.391       .  A
C2355      C2362   1.514       .  S
C2356      C2357   1.397       .  A
C2356      H2361   1.084       .  S
C2357      C2358   1.426       .  A
C2358      C2359   1.510       .  S
C2359      H2363   1.111       .  S
C2359      H2364   1.111       .  S
C2359      H2365   1.109   1_565  S
C2362      H2366   1.108       .  S
C2362      H2367   1.102       .  S
C2362      H2368   1.111       .  S
C2369      C2370   1.405       .  A
C2369      C2374   1.404       .  A
C2369      H2376   1.084       .  S
C2370      C2371   1.409       .  A
C2371      C2372   1.402       .  A
C2371      C2378   1.507       .  S
C2372      C2373   1.411       .  A
C2372      H2377   1.083       .  S
C2373      C2374   1.419       .  A
C2374      C2375   1.508       .  S
C2375      H2379   1.111       .  S
C2375      H2380   1.110       .  S
C2375      H2381   1.110       .  S
C2378      H2382   1.109       .  S
C2378      H2383   1.110       .  S
C2378      H2384   1.111       .  S
C2385      C2386   1.410   1_655  A
C2385      C2390   1.401       .  A
C2385      H2392   1.084       .  S
C2386      C2387   1.414       .  A
C2387      C2388   1.395       .  A
C2387      C2394   1.508       .  S
C2388      C2389   1.404       .  A
C2388      H2393   1.085       .  S
C2389      C2390   1.406   1_455  A
C2390      C2391   1.507       .  S
C2391      H2395   1.108       .  S
C2391      H2396   1.109       .  S
C2391      H2397   1.110       .  S
C2394      H2398   1.109       .  S
C2394      H2399   1.110       .  S
C2394      H2400   1.111       .  S
C2401      C2402   1.403       .  A
C2401      C2406   1.392       .  A
C2401      H2408   1.085       .  S
C2402      C2403   1.409       .  A
C2403      C2404   1.404       .  A
C2403      C2410   1.505       .  S
C2404      C2405   1.405       .  A
C2404      H2409   1.083   1_556  S
C2405      C2406   1.411       .  A
C2406      C2407   1.508   1_455  S
C2407      H2411   1.110       .  S
C2407      H2412   1.110       .  S
C2407      H2413   1.111       .  S
C2410      H2414   1.111       .  S
C2410      H2415   1.109       .  S
C2410      H2416   1.111       .  S
C2417      C2418   1.404   1_556  A
C2417      C2422   1.401       .  A
C2417      H2424   1.084       .  S
C2418      C2419   1.413       .  A
C2419      C2420   1.393       .  A
C2419      C2426   1.509       .  S
C2420      C2421   1.401       .  A
C2420      H2425   1.085       .  S
C2421      C2422   1.407   1_554  A
C2422      C2423   1.502       .  S
C2423      H2427   1.109       .  S
C2423      H2428   1.108       .  S
C2423      H2429   1.110       .  S
C2426      H2430   1.109       .  S
C2426      H2431   1.110   1_655  S
C2426      H2432   1.109       .  S
C2433      C2434   1.405       .  A
C2433      C2438   1.395       .  A
C2433      H2440   1.085       .  S
C2434      C2435   1.408       .  A
C2435      C2436   1.390       .  A
C2435      C2442   1.508   1_655  S
C2436      C2437   1.405       .  A
C2436      H2441   1.084       .  S
C2437      C2438   1.409       .  A
C2438      C2439   1.507       .  S
C2439      H2443   1.109       .  S
C2439      H2444   1.110       .  S
C2439      H2445   1.108       .  S
C2442      H2446   1.111       .  S
C2442      H2447   1.110       .  S
C2442      H2448   1.111       .  S
C2449      C2450   1.406   1_455  A
C2449      C2454   1.400       .  A
C2449      H2456   1.080       .  S
C2450      C2451   1.418       .  A
C2451      C2452   1.398       .  A
C2451      C2458   1.511       .  S
C2452      C2453   1.398   1_655  A
C2452      H2457   1.085       .  S
C2453      C2454   1.403       .  A
C2454      C2455   1.506       .  S
C2455      H2459   1.102       .  S
C2455      H2460   1.111       .  S
C2455      H2461   1.110       .  S
C2458      H2462   1.111       .  S
C2458      H2463   1.106       .  S
C2458      H2464   1.111       .  S
C2465      C2466   1.417       .  A
C2465      C2470   1.396       .  A
C2465      H2472   1.084       .  S
C2466      C2467   1.416       .  A
C2467      C2468   1.395       .  A
C2467      C2474   1.509       .  S
C2468      C2469   1.408       .  A
C2468      H2473   1.084       .  S
C2469      C2470   1.398       .  A
C2470      C2471   1.502       .  S
C2471      H2475   1.104       .  S
C2471      H2476   1.110       .  S
C2471      H2477   1.108       .  S
C2474      H2478   1.110       .  S
C2474      H2479   1.110       .  S
C2474      H2480   1.111       .  S
C2481      C2482   1.407       .  A
C2481      C2486   1.392       .  A
C2481      H2488   1.084       .  S
C2482      C2483   1.415       .  A
C2483      C2484   1.398       .  A
C2483      C2490   1.505       .  S
C2484      C2485   1.401       .  A
C2484      H2489   1.084       .  S
C2485      C2486   1.409       .  A
C2486      C2487   1.510       .  S
C2487      H2491   1.111       .  S
C2487      H2492   1.111       .  S
C2487      H2493   1.109       .  S
C2490      H2494   1.111       .  S
C2490      H2495   1.110       .  S
C2490      H2496   1.109       .  S
C2497      C2498   1.407       .  A
C2497      C2502   1.397       .  A
C2497      H2504   1.085       .  S
C2498      C2499   1.403       .  A
C2499      C2500   1.391       .  A
C2499      C2506   1.507       .  S
C2500      C2501   1.406       .  A
C2500      H2505   1.085       .  S
C2501      C2502   1.403       .  A
C2502      C2503   1.505       .  S
C2503      H2507   1.111       .  S
C2503      H2508   1.111       .  S
C2503      H2509   1.110       .  S
C2506      H2510   1.110       .  S
C2506      H2511   1.110       .  S
C2506      H2512   1.111       .  S
C2513      C2514   1.396       .  A
C2513      C2518   1.397       .  A
C2513      H2520   1.084       .  S
C2514      C2515   1.418       .  A
C2515      C2516   1.388       .  A
C2515      C2522   1.507       .  S
C2516      C2517   1.388       .  A
C2516      H2521   1.085       .  S
C2517      C2518   1.414       .  A
C2518      C2519   1.509       .  S
C2519      H2523   1.111       .  S
C2519      H2524   1.109   1_455  S
C2519      H2525   1.110   1_455  S
C2522      H2526   1.107       .  S
C2522      H2527   1.107       .  S
C2522      H2528   1.111       .  S
C2529      C2530   1.412       .  A
C2529      C2534   1.392       .  A
C2529      H2536   1.083       .  S
C2530      C2531   1.414       .  A
C2531      C2532   1.403       .  A
C2531      C2538   1.500       .  S
C2532      C2533   1.402       .  A
C2532      H2537   1.082       .  S
C2533      C2534   1.408       .  A
C2534      C2535   1.512       .  S
C2535      H2539   1.111       .  S
C2535      H2540   1.110       .  S
C2535      H2541   1.108       .  S
C2538      H2542   1.107       .  S
C2538      H2543   1.110       .  S
C2538      H2544   1.105       .  S
C2545      C2546   1.406       .  A
C2545      C2550   1.392       .  A
C2545      H2552   1.083       .  S
C2546      C2547   1.412       .  A
C2547      C2548   1.402       .  A
C2547      C2554   1.500       .  S
C2548      C2549   1.404       .  A
C2548      H2553   1.083       .  S
C2549      C2550   1.409       .  A
C2550      C2551   1.506       .  S
C2551      H2555   1.110       .  S
C2551      H2556   1.109       .  S
C2551      H2557   1.098       .  S
C2554      H2558   1.109       .  S
C2554      H2559   1.110       .  S
C2554      H2560   1.110       .  S
C2561      C2562   1.398       .  A
C2561      C2566   1.398       .  A
C2561      H2568   1.084       .  S
C2562      C2563   1.412       .  A
C2563      C2564   1.389       .  A
C2563      C2570   1.508       .  S
C2564      C2565   1.398       .  A
C2564      H2569   1.085       .  S
C2565      C2566   1.411       .  A
C2566      C2567   1.506       .  S
C2567      H2571   1.108       .  S
C2567      H2572   1.110       .  S
C2567      H2573   1.110       .  S
C2570      H2574   1.110       .  S
C2570      H2575   1.108       .  S
C2570      H2576   1.111       .  S
C2577      C2578   1.401       .  A
C2577      C2582   1.401       .  A
C2577      H2584   1.084       .  S
C2578      C2579   1.409       .  A
C2579      C2580   1.398       .  A
C2579      C2586   1.507       .  S
C2580      C2581   1.403       .  A
C2580      H2585   1.085       .  S
C2581      C2582   1.411       .  A
C2582      C2583   1.505       .  S
C2583      H2587   1.111       .  S
C2583      H2588   1.109       .  S
C2583      H2589   1.110       .  S
C2586      H2590   1.111       .  S
C2586      H2591   1.109       .  S
C2586      H2592   1.111       .  S
C2593      C2594   1.404       .  A
C2593      C2598   1.402       .  A
C2593      H2600   1.084       .  S
C2594      C2595   1.412       .  A
C2595      C2596   1.400       .  A
C2595      C2602   1.504       .  S
C2596      C2597   1.402       .  A
C2596      H2601   1.085       .  S
C2597      C2598   1.407       .  A
C2598      C2599   1.505       .  S
C2599      H2603   1.111       .  S
C2599      H2604   1.111       .  S
C2599      H2605   1.110       .  S
C2602      H2606   1.110       .  S
C2602      H2607   1.111       .  S
C2602      H2608   1.110       .  S
C2609      C2610   1.398       .  A
C2609      C2614   1.400       .  A
C2609      H2616   1.085       .  S
C2610      C2611   1.411       .  A
C2611      C2612   1.397       .  A
C2611      C2618   1.506       .  S
C2612      C2613   1.403       .  A
C2612      H2617   1.084       .  S
C2613      C2614   1.422       .  A
C2614      C2615   1.508       .  S
C2615      H2619   1.111       .  S
C2615      H2620   1.109       .  S
C2615      H2621   1.109       .  S
C2618      H2622   1.110       .  S
C2618      H2623   1.110       .  S
C2618      H2624   1.110       .  S
C2625      C2626   1.407       .  A
C2625      C2630   1.403       .  A
C2625      H2632   1.085   1_655  S
C2626      C2627   1.403       .  A
C2627      C2628   1.399       .  A
C2627      C2634   1.506       .  S
C2628      C2629   1.413       .  A
C2628      H2633   1.079       .  S
C2629      C2630   1.411       .  A
C2630      C2631   1.507       .  S
C2631      H2635   1.110   1_655  S
C2631      H2636   1.110       .  S
C2631      H2637   1.111       .  S
C2634      H2638   1.110       .  S
C2634      H2639   1.110       .  S
C2634      H2640   1.111       .  S
C2641      C2642   1.406   1_655  A
C2641      C2646   1.406       .  A
C2641      H2648   1.082       .  S
C2642      C2643   1.425       .  A
C2643      C2644   1.397       .  A
C2643      C2650   1.509       .  S
C2644      C2645   1.401   1_455  A
C2644      H2649   1.084       .  S
C2645      C2646   1.414       .  A
C2646      C2647   1.502       .  S
C2647      H2651   1.111       .  S
C2647      H2652   1.107       .  S
C2647      H2653   1.111       .  S
C2650      H2654   1.110       .  S
C2650      H2655   1.103       .  S
C2650      H2656   1.107       .  S
C2657      C2658   1.402       .  A
C2657      C2662   1.389       .  A
C2657      H2664   1.084       .  S
C2658      C2659   1.409       .  A
C2659      C2660   1.407       .  A
C2659      C2666   1.504       .  S
C2660      C2661   1.409       .  A
C2660      H2665   1.084       .  S
C2661      C2662   1.411       .  A
C2662      C2663   1.510       .  S
C2663      H2667   1.111       .  S
C2663      H2668   1.106       .  S
C2663      H2669   1.108       .  S
C2666      H2670   1.110   1_455  S
C2666      H2671   1.110       .  S
C2666      H2672   1.111       .  S
C2673      C2674   1.397       .  A
C2673      C2678   1.387       .  A
C2673      H2680   1.085       .  S
C2674      C2675   1.414       .  A
C2675      C2676   1.394       .  A
C2675      C2682   1.504       .  S
C2676      C2677   1.393       .  A
C2676      H2681   1.084       .  S
C2677      C2678   1.412       .  A
C2678      C2679   1.510       .  S
C2679      H2683   1.111       .  S
C2679      H2684   1.109       .  S
C2679      H2685   1.109       .  S
C2682      H2686   1.110       .  S
C2682      H2687   1.108       .  S
C2682      H2688   1.111       .  S
C2689      C2690   1.405       .  A
C2689      C2694   1.396       .  A
C2689      H2696   1.084       .  S
C2690      C2691   1.409       .  A
C2691      C2692   1.400       .  A
C2691      C2698   1.509       .  S
C2692      C2693   1.403       .  A
C2692      H2697   1.084       .  S
C2693      C2694   1.407       .  A
C2694      C2695   1.507       .  S
C2695      H2699   1.111       .  S
C2695      H2700   1.109       .  S
C2695      H2701   1.110       .  S
C2698      H2702   1.108       .  S
C2698      H2703   1.110       .  S
C2698      H2704   1.111       .  S
C2705      C2706   1.392       .  A
C2705      C2710   1.399       .  A
C2705      H2712   1.085       .  S
C2706      C2707   1.413       .  A
C2707      C2708   1.395       .  A
C2707      C2714   1.510       .  S
C2708      C2709   1.398       .  A
C2708      H2713   1.084       .  S
C2709      C2710   1.415       .  A
C2710      C2711   1.493       .  S
C2711      H2715   1.111       .  S
C2711      H2716   1.107       .  S
C2711      H2717   1.107       .  S
C2714      H2718   1.110       .  S
C2714      H2719   1.109       .  S
C2714      H2720   1.111       .  S
C2721      C2722   1.414       .  A
C2721      C2726   1.401       .  A
C2721      H2728   1.083       .  S
C2722      C2723   1.405       .  A
C2723      C2724   1.389       .  A
C2723      C2730   1.504       .  S
C2724      C2725   1.407       .  A
C2724      H2729   1.084       .  S
C2725      C2726   1.402       .  A
C2726      C2727   1.506       .  S
C2727      H2731   1.111       .  S
C2727      H2732   1.110       .  S
C2727      H2733   1.110       .  S
C2730      H2734   1.107       .  S
C2730      H2735   1.108       .  S
C2730      H2736   1.106       .  S
C2737      C2738   1.406       .  A
C2737      C2742   1.392       .  A
C2737      H2744   1.081       .  S
C2738      C2739   1.425       .  A
C2739      C2740   1.408       .  A
C2739      C2746   1.502       .  S
C2740      C2741   1.398       .  A
C2740      H2745   1.084       .  S
C2741      C2742   1.414       .  A
C2742      C2743   1.513       .  S
C2743      H2747   1.108       .  S
C2743      H2748   1.106       .  S
C2743      H2749   1.108       .  S
C2746      H2750   1.107       .  S
C2746      H2751   1.108       .  S
C2746      H2752   1.111       .  S
C2753      C2754   1.396       .  A
C2753      C2758   1.401       .  A
C2753      H2760   1.084       .  S
C2754      C2755   1.414       .  A
C2755      C2756   1.400       .  A
C2755      C2762   1.503       .  S
C2756      C2757   1.398       .  A
C2756      H2761   1.084       .  S
C2757      C2758   1.428       .  A
C2758      C2759   1.511       .  S
C2759      H2763   1.104       .  S
C2759      H2764   1.106       .  S
C2759      H2765   1.109       .  S
C2762      H2766   1.111       .  S
C2762      H2767   1.111       .  S
C2762      H2768   1.111       .  S
C2769      C2770   1.398       .  A
C2769      C2774   1.395       .  A
C2769      H2776   1.085       .  S
C2770      C2771   1.403       .  A
C2771      C2772   1.402       .  A
C2771      C2778   1.504       .  S
C2772      C2773   1.412       .  A
C2772      H2777   1.084       .  S
C2773      C2774   1.421       .  A
C2774      C2775   1.509       .  S
C2775      H2779   1.111       .  S
C2775      H2780   1.110       .  S
C2775      H2781   1.110       .  S
C2778      H2782   1.110       .  S
C2778      H2783   1.110       .  S
C2778      H2784   1.108       .  S
C2785      C2786   1.404       .  A
C2785      C2790   1.395       .  A
C2785      H2792   1.082       .  S
C2786      C2787   1.411       .  A
C2787      C2788   1.401       .  A
C2787      C2794   1.506       .  S
C2788      C2789   1.413       .  A
C2788      H2793   1.083       .  S
C2789      C2790   1.412       .  A
C2790      C2791   1.507       .  S
C2791      H2795   1.111       .  S
C2791      H2796   1.106       .  S
C2791      H2797   1.110       .  S
C2794      H2798   1.106       .  S
C2794      H2799   1.110       .  S
C2794      H2800   1.111       .  S
C2801      C2802   1.407       .  A
C2801      C2806   1.391       .  A
C2801      H2808   1.084       .  S
C2802      C2803   1.420       .  A
C2803      C2804   1.406       .  A
C2803      C2810   1.505   1_455  S
C2804      C2805   1.402       .  A
C2804      H2809   1.084   1_455  S
C2805      C2806   1.410       .  A
C2806      C2807   1.511       .  S
C2807      H2811   1.108       .  S
C2807      H2812   1.110       .  S
C2807      H2813   1.107       .  S
C2810      H2814   1.110       .  S
C2810      H2815   1.108       .  S
C2810      H2816   1.111       .  S
C2817      C2818   1.400       .  A
C2817      C2822   1.401       .  A
C2817      H2824   1.082       .  S
C2818      C2819   1.420       .  A
C2819      C2820   1.389       .  A
C2819      C2826   1.511       .  S
C2820      C2821   1.396       .  A
C2820      H2825   1.085       .  S
C2821      C2822   1.418       .  A
C2822      C2823   1.510       .  S
C2823      H2827   1.111       .  S
C2823      H2828   1.108       .  S
C2823      H2829   1.111       .  S
C2826      H2830   1.103       .  S
C2826      H2831   1.110       .  S
C2826      H2832   1.109       .  S
C2833      C2834   1.404       .  A
C2833      C2838   1.389       .  A
C2833      H2840   1.084       .  S
C2834      C2835   1.418       .  A
C2835      C2836   1.404       .  A
C2835      C2842   1.507       .  S
C2836      C2837   1.401       .  A
C2836      H2841   1.084       .  S
C2837      C2838   1.410       .  A
C2838      C2839   1.512       .  S
C2839      H2843   1.111       .  S
C2839      H2844   1.110       .  S
C2839      H2845   1.109       .  S
C2842      H2846   1.111       .  S
C2842      H2847   1.110       .  S
C2842      H2848   1.111       .  S
C2849      C2850   1.393       .  A
C2849      C2854   1.384       .  A
C2849      H2856   1.087       .  S
C2850      C2851   1.406       .  A
C2851      C2852   1.400       .  A
C2851      C2858   1.505       .  S
C2852      C2853   1.408       .  A
C2852      H2857   1.085       .  S
C2853      C2854   1.418       .  A
C2854      C2855   1.507       .  S
C2855      H2859   1.110       .  S
C2855      H2860   1.097       .  S
C2855      H2861   1.111       .  S
C2858      H2862   1.111       .  S
C2858      H2863   1.109       .  S
C2858      H2864   1.110       .  S
C2865      C2866   1.402       .  A
C2865      C2870   1.403       .  A
C2865      H2872   1.084       .  S
C2866      C2867   1.408       .  A
C2867      C2868   1.394       .  A
C2867      C2874   1.509       .  S
C2868      C2869   1.403       .  A
C2868      H2873   1.084       .  S
C2869      C2870   1.413       .  A
C2870      C2871   1.508       .  S
C2871      H2875   1.111       .  S
C2871      H2876   1.108       .  S
C2871      H2877   1.109       .  S
C2874      H2878   1.111       .  S
C2874      H2879   1.110       .  S
C2874      H2880   1.111       .  S
C2881      C2882   1.401       .  A
C2881      C2886   1.384       .  A
C2881      H2888   1.084       .  S
C2882      C2883   1.423       .  A
C2883      C2884   1.411       .  A
C2883      C2890   1.507       .  S
C2884      C2885   1.402       .  A
C2884      H2889   1.084       .  S
C2885      C2886   1.417       .  A
C2886      C2887   1.512       .  S
C2887      H2891   1.111       .  S
C2887      H2892   1.110       .  S
C2887      H2893   1.105       .  S
C2890      H2894   1.110       .  S
C2890      H2895   1.110       .  S
C2890      H2896   1.111       .  S
C2897      C2898   1.413       .  A
C2897      C2902   1.401       .  A
C2897      H2904   1.084       .  S
C2898      C2899   1.411       .  A
C2899      C2900   1.400       .  A
C2899      C2906   1.507       .  S
C2900      C2901   1.407       .  A
C2900      H2905   1.083       .  S
C2901      C2902   1.404       .  A
C2902      C2903   1.506       .  S
C2903      H2907   1.111       .  S
C2903      H2908   1.109       .  S
C2903      H2909   1.110       .  S
C2906      H2910   1.110       .  S
C2906      H2911   1.110       .  S
C2906      H2912   1.111       .  S
C2913      C2914   1.396       .  A
C2913      C2918   1.395       .  A
C2913      H2920   1.084       .  S
C2914      C2915   1.406       .  A
C2915      C2916   1.387       .  A
C2915      C2922   1.500   1_545  S
C2916      C2917   1.393       .  A
C2916      H2921   1.085   1_545  S
C2917      C2918   1.411       .  A
C2918      C2919   1.508       .  S
C2919      H2923   1.111       .  S
C2919      H2924   1.110       .  S
C2919      H2925   1.111       .  S
C2922      H2926   1.107   1_565  S
C2922      H2927   1.109       .  S
C2922      H2928   1.110       .  S
C2929      C2930   1.396       .  A
C2929      C2934   1.396       .  A
C2929      H2936   1.086       .  S
C2930      C2931   1.411       .  A
C2931      C2932   1.409       .  A
C2931      C2938   1.505   1_565  S
C2932      C2933   1.405       .  A
C2932      H2937   1.084       .  S
C2933      C2934   1.416       .  A
C2934      C2935   1.499       .  S
C2935      H2939   1.096       .  S
C2935      H2940   1.111       .  S
C2935      H2941   1.107       .  S
C2938      H2942   1.110       .  S
C2938      H2943   1.110       .  S
C2938      H2944   1.111       .  S
C2945      C2946   1.419       .  A
C2945      C2950   1.400       .  A
C2945      H2952   1.083       .  S
C2946      C2947   1.409       .  A
C2947      C2948   1.392       .  A
C2947      C2954   1.507       .  S
C2948      C2949   1.410       .  A
C2948      H2953   1.076       .  S
C2949      C2950   1.399       .  A
C2950      C2951   1.505       .  S
C2951      H2955   1.111       .  S
C2951      H2956   1.110       .  S
C2951      H2957   1.108       .  S
C2954      H2958   1.109       .  S
C2954      H2959   1.109       .  S
C2954      H2960   1.110       .  S
C2961      C2962   1.413       .  A
C2961      C2966   1.400       .  A
C2961      H2968   1.084       .  S
C2962      C2963   1.414       .  A
C2963      C2964   1.396   1_565  A
C2963      C2970   1.505       .  S
C2964      C2965   1.404   1_545  A
C2964      H2969   1.085       .  S
C2965      C2966   1.404       .  A
C2966      C2967   1.504       .  S
C2967      H2971   1.110       .  S
C2967      H2972   1.110       .  S
C2967      H2973   1.111       .  S
C2970      H2974   1.111   1_565  S
C2970      H2975   1.108       .  S
C2970      H2976   1.111       .  S
C2977      C2978   1.405       .  A
C2977      C2982   1.394       .  A
C2977      H2984   1.086       .  S
C2978      C2979   1.412       .  A
C2979      C2980   1.403       .  A
C2979      C2986   1.507       .  S
C2980      C2981   1.405       .  A
C2980      H2985   1.081       .  S
C2981      C2982   1.410       .  A
C2982      C2983   1.509       .  S
C2983      H2987   1.111       .  S
C2983      H2988   1.110       .  S
C2983      H2989   1.108       .  S
C2986      H2990   1.111       .  S
C2986      H2991   1.106       .  S
C2986      H2992   1.110       .  S
C2993      C2994   1.402       .  A
C2993      C2998   1.400       .  A
C2993      H3000   1.084       .  S
C2994      C2995   1.411       .  A
C2995      C2996   1.393   1_565  A
C2995      C3002   1.510       .  S
C2996      C2997   1.406       .  A
C2996      H3001   1.084       .  S
C2997      C2998   1.413   1_545  A
C2998      C2999   1.506       .  S
C2999      H3003   1.111   1_565  S
C2999      H3004   1.110   1_565  S
C2999      H3005   1.110       .  S
C3002      H3006   1.108       .  S
C3002      H3007   1.111       .  S
C3002      H3008   1.111   1_565  S
C3009      C3010   1.405       .  A
C3009      C3014   1.395       .  A
C3009      H3016   1.083       .  S
C3010      C3011   1.399       .  A
C3011      C3012   1.392       .  A
C3011      C3018   1.500       .  S
C3012      C3013   1.405       .  A
C3012      H3017   1.085       .  S
C3013      C3014   1.407       .  A
C3014      C3015   1.508       .  S
C3015      H3019   1.111       .  S
C3015      H3020   1.108       .  S
C3015      H3021   1.110       .  S
C3018      H3022   1.110       .  S
C3018      H3023   1.108       .  S
C3018      H3024   1.109       .  S
C3025      C3026   1.411       .  A
C3025      C3030   1.406       .  A
C3025      H3032   1.084       .  S
C3026      C3027   1.409       .  A
C3027      C3028   1.402       .  A
C3027      C3034   1.503       .  S
C3028      C3029   1.413       .  A
C3028      H3033   1.084       .  S
C3029      C3030   1.412       .  A
C3030      C3031   1.506       .  S
C3031      H3035   1.104       .  S
C3031      H3036   1.110       .  S
C3031      H3037   1.111       .  S
C3034      H3038   1.111       .  S
C3034      H3039   1.111       .  S
C3034      H3040   1.109       .  S
C3041      C3042   1.405       .  A
C3041      C3046   1.394       .  A
C3041      H3048   1.084       .  S
C3042      C3043   1.425   1_554  A
C3043      C3044   1.406       .  A
C3043      C3050   1.506       .  S
C3044      C3045   1.398   1_556  A
C3044      H3049   1.084       .  S
C3045      C3046   1.417       .  A
C3046      C3047   1.511       .  S
C3047      H3051   1.111       .  S
C3047      H3052   1.111       .  S
C3047      H3053   1.104       .  S
C3050      H3054   1.108       .  S
C3050      H3055   1.110       .  S
C3050      H3056   1.110       .  S
C3057      C3058   1.403       .  A
C3057      C3062   1.388       .  A
C3057      H3064   1.085       .  S
C3058      C3059   1.415       .  A
C3059      C3060   1.404       .  A
C3059      C3066   1.501       .  S
C3060      C3061   1.402       .  A
C3060      H3065   1.085       .  S
C3061      C3062   1.411       .  A
C3062      C3063   1.509       .  S
C3063      H3067   1.111       .  S
C3063      H3068   1.109       .  S
C3063      H3069   1.107       .  S
C3066      H3070   1.107       .  S
C3066      H3071   1.103       .  S
C3066      H3072   1.111       .  S
C3073      C3074   1.402       .  A
C3073      C3078   1.401       .  A
C3073      H3080   1.080       .  S
C3074      C3075   1.405       .  A
C3075      C3076   1.399       .  A
C3075      C3082   1.506       .  S
C3076      C3077   1.405       .  A
C3076      H3081   1.081   1_556  S
C3077      C3078   1.407       .  A
C3078      C3079   1.506       .  S
C3079      H3083   1.110       .  S
C3079      H3084   1.110       .  S
C3079      H3085   1.109       .  S
C3082      H3086   1.110       .  S
C3082      H3087   1.109       .  S
C3082      H3088   1.111   1_556  S
C3089      C3090   1.404       .  A
C3089      C3094   1.395       .  A
C3089      H3096   1.084       .  S
C3090      C3091   1.409       .  A
C3091      C3092   1.388       .  A
C3091      C3098   1.506       .  S
C3092      C3093   1.403       .  A
C3092      H3097   1.084       .  S
C3093      C3094   1.410       .  A
C3094      C3095   1.502       .  S
C3095      H3099   1.110       .  S
C3095      H3100   1.107       .  S
C3095      H3101   1.109       .  S
C3098      H3102   1.110       .  S
C3098      H3103   1.110       .  S
C3098      H3104   1.111       .  S
C3105      C3106   1.402       .  A
C3105      C3110   1.388       .  A
C3105      H3112   1.083       .  S
C3106      C3107   1.420       .  A
C3107      C3108   1.399       .  A
C3107      C3114   1.507   1_554  S
C3108      C3109   1.394       .  A
C3108      H3113   1.084   1_554  S
C3109      C3110   1.410       .  A
C3110      C3111   1.511       .  S
C3111      H3115   1.111       .  S
C3111      H3116   1.106       .  S
C3111      H3117   1.109       .  S
C3114      H3118   1.109       .  S
C3114      H3119   1.110       .  S
C3114      H3120   1.110       .  S
C3121      C3122   1.405       .  A
C3121      C3126   1.401       .  A
C3121      H3128   1.085       .  S
C3122      C3123   1.419       .  A
C3123      C3124   1.385       .  A
C3123      C3130   1.511       .  S
C3124      C3125   1.392   1_556  A
C3124      H3129   1.086   1_556  S
C3125      C3126   1.408   1_554  A
C3126      C3127   1.506       .  S
C3127      H3131   1.110       .  S
C3127      H3132   1.109   1_556  S
C3127      H3133   1.110       .  S
C3130      H3134   1.106       .  S
C3130      H3135   1.106       .  S
C3130      H3136   1.111       .  S
C3137      C3138   1.398       .  A
C3137      C3142   1.394       .  A
C3137      H3144   1.083       .  S
C3138      C3139   1.417       .  A
C3139      C3140   1.397       .  A
C3139      C3146   1.501       .  S
C3140      C3141   1.398       .  A
C3140      H3145   1.085       .  S
C3141      C3142   1.422       .  A
C3142      C3143   1.510       .  S
C3143      H3147   1.111       .  S
C3143      H3148   1.111       .  S
C3143      H3149   1.105       .  S
C3146      H3150   1.110       .  S
C3146      H3151   1.109       .  S
C3146      H3152   1.097       .  S
C3153      C3154   1.396       .  A
C3153      C3158   1.394       .  A
C3153      H3160   1.085       .  S
C3154      C3155   1.423       .  A
C3155      C3156   1.386       .  A
C3155      C3162   1.513       .  S
C3156      C3157   1.390       .  A
C3156      H3161   1.086       .  S
C3157      C3158   1.414       .  A
C3158      C3159   1.499       .  S
C3159      H3163   1.110       .  S
C3159      H3164   1.099       .  S
C3159      H3165   1.110       .  S
C3162      H3166   1.111       .  S
C3162      H3167   1.108       .  S
C3162      H3168   1.111       .  S
C3169      C3170   1.403       .  A
C3169      C3174   1.397       .  A
C3169      H3176   1.085       .  S
C3170      C3171   1.412       .  A
C3171      C3172   1.414       .  A
C3171      C3178   1.505       .  S
C3172      C3173   1.410       .  A
C3172      H3177   1.084       .  S
C3173      C3174   1.417       .  A
C3174      C3175   1.510       .  S
C3175      H3179   1.111       .  S
C3175      H3180   1.110       .  S
C3175      H3181   1.107       .  S
C3178      H3182   1.111       .  S
C3178      H3183   1.110       .  S
C3178      H3184   1.111       .  S
C3185      C3186   1.410       .  A
C3185      C3190   1.399       .  A
C3185      H3192   1.086       .  S
C3186      C3187   1.413       .  A
C3187      C3188   1.407       .  A
C3187      C3194   1.506       .  S
C3188      C3189   1.414       .  A
C3188      H3193   1.083       .  S
C3189      C3190   1.412       .  A
C3190      C3191   1.507       .  S
C3191      H3195   1.111       .  S
C3191      H3196   1.109       .  S
C3191      H3197   1.107       .  S
C3194      H3198   1.110       .  S
C3194      H3199   1.108       .  S
C3194      H3200   1.111       .  S
C3201      C3202   1.408       .  A
C3201      C3206   1.394       .  A
C3201      H3208   1.084       .  S
C3202      C3203   1.416       .  A
C3203      C3204   1.395       .  A
C3203      C3210   1.506       .  S
C3204      C3205   1.397       .  A
C3204      H3209   1.085       .  S
C3205      C3206   1.404       .  A
C3206      C3207   1.508       .  S
C3207      H3211   1.111       .  S
C3207      H3212   1.109       .  S
C3207      H3213   1.110       .  S
C3210      H3214   1.110       .  S
C3210      H3215   1.110       .  S
C3210      H3216   1.111       .  S
C3217      C3218   1.404       .  A
C3217      C3222   1.389       .  A
C3217      H3224   1.081       .  S
C3218      C3219   1.425       .  A
C3219      C3220   1.396       .  A
C3219      C3226   1.509       .  S
C3220      C3221   1.397       .  A
C3220      H3225   1.085       .  S
C3221      C3222   1.411       .  A
C3222      C3223   1.511       .  S
C3223      H3227   1.111       .  S
C3223      H3228   1.110       .  S
C3223      H3229   1.108       .  S
C3226      H3230   1.110       .  S
C3226      H3231   1.110       .  S
C3226      H3232   1.111       .  S
C3233      C3234   1.402   1_554  A
C3233      C3238   1.390       .  A
C3233      H3240   1.082       .  S
C3234      C3235   1.421       .  A
C3235      C3236   1.402   1_556  A
C3235      C3242   1.507       .  S
C3236      C3237   1.397       .  A
C3236      H3241   1.084       .  S
C3237      C3238   1.415       .  A
C3238      C3239   1.512       .  S
C3239      H3243   1.110       .  S
C3239      H3244   1.106       .  S
C3239      H3245   1.111       .  S
C3242      H3246   1.110       .  S
C3242      H3247   1.107       .  S
C3242      H3248   1.111       .  S
C3249      C3250   1.401       .  A
C3249      C3254   1.397       .  A
C3249      H3256   1.084       .  S
C3250      C3251   1.407       .  A
C3251      C3252   1.405       .  A
C3251      C3258   1.504       .  S
C3252      C3253   1.408       .  A
C3252      H3257   1.084       .  S
C3253      C3254   1.413       .  A
C3254      C3255   1.509       .  S
C3255      H3259   1.111       .  S
C3255      H3260   1.110       .  S
C3255      H3261   1.109       .  S
C3258      H3262   1.110       .  S
C3258      H3263   1.111       .  S
C3258      H3264   1.110       .  S
C3265      C3266   1.399       .  A
C3265      C3270   1.402       .  A
C3265      H3272   1.084       .  S
C3266      C3267   1.420       .  A
C3267      C3268   1.404       .  A
C3267      C3274   1.501       .  S
C3268      C3269   1.402       .  A
C3268      H3273   1.084       .  S
C3269      C3270   1.418       .  A
C3270      C3271   1.503       .  S
C3271      H3275   1.110       .  S
C3271      H3276   1.109       .  S
C3271      H3277   1.110       .  S
C3274      H3278   1.109       .  S
C3274      H3279   1.110       .  S
C3274      H3280   1.108       .  S
C3281      C3282   1.410       .  A
C3281      C3286   1.405       .  A
C3281      H3288   1.084       .  S
C3282      C3283   1.417       .  A
C3283      C3284   1.398       .  A
C3283      C3290   1.511       .  S
C3284      C3285   1.406       .  A
C3284      H3289   1.084       .  S
C3285      C3286   1.406       .  A
C3286      C3287   1.501       .  S
C3287      H3291   1.110       .  S
C3287      H3292   1.108       .  S
C3287      H3293   1.104       .  S
C3290      H3294   1.108       .  S
C3290      H3295   1.110       .  S
C3290      H3296   1.111       .  S
C3297      C3298   1.409       .  A
C3297      C3302   1.404       .  A
C3297      H3304   1.084       .  S
C3298      C3299   1.403   1_554  A
C3299      C3300   1.393       .  A
C3299      C3306   1.503       .  S
C3300      C3301   1.405       .  A
C3300      H3305   1.084       .  S
C3301      C3302   1.408   1_556  A
C3302      C3303   1.503       .  S
C3303      H3307   1.111       .  S
C3303      H3308   1.110       .  S
C3303      H3309   1.110       .  S
C3306      H3310   1.103       .  S
C3306      H3311   1.110       .  S
C3306      H3312   1.104       .  S
C3313      C3314   1.399       .  A
C3313      C3318   1.388       .  A
C3313      H3320   1.086       .  S
C3314      C3315   1.394       .  A
C3315      C3316   1.397       .  A
C3315      C3322   1.504       .  S
C3316      C3317   1.411       .  A
C3316      H3321   1.078       .  S
C3317      C3318   1.414       .  A
C3318      C3319   1.512       .  S
C3319      H3323   1.111       .  S
C3319      H3324   1.110       .  S
C3319      H3325   1.105       .  S
C3322      H3326   1.111       .  S
C3322      H3327   1.110       .  S
C3322      H3328   1.107       .  S
C3329      C3330   1.404       .  A
C3329      C3334   1.389       .  A
C3329      H3336   1.084       .  S
C3330      C3331   1.410       .  A
C3331      C3332   1.410       .  A
C3331      C3338   1.503       .  S
C3332      C3333   1.409       .  A
C3332      H3337   1.084       .  S
C3333      C3334   1.414       .  A
C3334      C3335   1.514       .  S
C3335      H3339   1.111       .  S
C3335      H3340   1.109       .  S
C3335      H3341   1.106       .  S
C3338      H3342   1.111       .  S
C3338      H3343   1.109       .  S
C3338      H3344   1.107       .  S
C3345      C3346   1.407       .  A
C3345      C3350   1.400       .  A
C3345      H3352   1.084       .  S
C3346      C3347   1.411       .  A
C3347      C3348   1.402       .  A
C3347      C3354   1.507       .  S
C3348      C3349   1.407       .  A
C3348      H3353   1.084       .  S
C3349      C3350   1.408       .  A
C3350      C3351   1.506       .  S
C3351      H3355   1.109       .  S
C3351      H3356   1.109       .  S
C3351      H3357   1.107       .  S
C3354      H3358   1.110       .  S
C3354      H3359   1.110       .  S
C3354      H3360   1.111       .  S
C3361      C3362   1.397       .  A
C3361      C3366   1.393       .  A
C3361      H3368   1.085       .  S
C3362      C3363   1.415       .  A
C3363      C3364   1.394       .  A
C3363      C3370   1.503       .  S
C3364      C3365   1.394       .  A
C3364      H3369   1.084       .  S
C3365      C3366   1.419       .  A
C3366      C3367   1.510       .  S
C3367      H3371   1.110       .  S
C3367      H3372   1.106       .  S
C3367      H3373   1.111       .  S
C3370      H3374   1.110       .  S
C3370      H3375   1.111       .  S
C3370      H3376   1.111       .  S
C3377      C3378   1.398       .  A
C3377      C3382   1.403       .  A
C3377      H3384   1.084       .  S
C3378      C3379   1.414       .  A
C3379      C3380   1.401       .  A
C3379      C3386   1.501       .  S
C3380      C3381   1.396       .  A
C3380      H3385   1.084       .  S
C3381      C3382   1.419       .  A
C3382      C3383   1.509       .  S
C3383      H3387   1.110       .  S
C3383      H3388   1.109       .  S
C3383      H3389   1.108       .  S
C3386      H3390   1.109       .  S
C3386      H3391   1.110       .  S
C3386      H3392   1.106       .  S
C3393      C3394   1.400       .  A
C3393      C3398   1.400       .  A
C3393      H3400   1.084       .  S
C3394      C3395   1.403       .  A
C3395      C3396   1.396       .  A
C3395      C3402   1.499       .  S
C3396      C3397   1.398       .  A
C3396      H3401   1.085       .  S
C3397      C3398   1.412       .  A
C3398      C3399   1.508       .  S
C3399      H3403   1.108       .  S
C3399      H3404   1.111       .  S
C3399      H3405   1.110       .  S
C3402      H3406   1.110       .  S
C3402      H3407   1.110       .  S
C3402      H3408   1.102       .  S
C3409      C3410   1.399       .  A
C3409      C3414   1.396       .  A
C3409      H3416   1.083       .  S
C3410      C3411   1.416       .  A
C3411      C3412   1.396       .  A
C3411      C3418   1.505       .  S
C3412      C3413   1.402       .  A
C3412      H3417   1.083       .  S
C3413      C3414   1.429       .  A
C3414      C3415   1.512       .  S
C3415      H3419   1.111       .  S
C3415      H3420   1.107       .  S
C3415      H3421   1.105       .  S
C3418      H3422   1.110       .  S
C3418      H3423   1.105       .  S
C3418      H3424   1.110       .  S
C3425      C3426   1.405       .  A
C3425      C3430   1.398       .  A
C3425      H3432   1.084   1_545  S
C3426      C3427   1.409       .  A
C3427      C3428   1.408       .  A
C3427      C3434   1.505       .  S
C3428      C3429   1.408       .  A
C3428      H3433   1.078       .  S
C3429      C3430   1.410       .  A
C3430      C3431   1.507       .  S
C3431      H3435   1.111   1_545  S
C3431      H3436   1.111       .  S
C3431      H3437   1.106       .  S
C3434      H3438   1.111       .  S
C3434      H3439   1.110       .  S
C3434      H3440   1.111       .  S
C3441      C3442   1.417       .  A
C3441      C3446   1.393       .  A
C3441      H3448   1.082       .  S
C3442      C3443   1.414       .  A
C3443      C3444   1.404       .  A
C3443      C3450   1.508       .  S
C3444      C3445   1.411       .  A
C3444      H3449   1.084       .  S
C3445      C3446   1.400       .  A
C3446      C3447   1.505       .  S
C3447      H3451   1.111       .  S
C3447      H3452   1.107       .  S
C3447      H3453   1.107       .  S
C3450      H3454   1.109       .  S
C3450      H3455   1.110   1_565  S
C3450      H3456   1.111       .  S
C3457      C3458   1.396       .  A
C3457      C3462   1.404       .  A
C3457      H3464   1.084       .  S
C3458      C3459   1.417       .  A
C3459      C3460   1.393       .  A
C3459      C3466   1.512       .  S
C3460      C3461   1.401       .  A
C3460      H3465   1.083       .  S
C3461      C3462   1.425       .  A
C3462      C3463   1.510       .  S
C3463      H3467   1.111       .  S
C3463      H3468   1.111       .  S
C3463      H3469   1.108       .  S
C3466      H3470   1.107       .  S
C3466      H3471   1.108       .  S
C3466      H3472   1.111       .  S
C3473      C3474   1.403       .  A
C3473      C3478   1.399       .  A
C3473      H3480   1.085   1_565  S
C3474      C3475   1.409       .  A
C3475      C3476   1.398       .  A
C3475      C3482   1.506       .  S
C3476      C3477   1.403       .  A
C3476      H3481   1.082       .  S
C3477      C3478   1.414       .  A
C3478      C3479   1.507       .  S
C3479      H3483   1.109   1_565  S
C3479      H3484   1.108       .  S
C3479      H3485   1.110       .  S
C3482      H3486   1.110       .  S
C3482      H3487   1.110       .  S
C3482      H3488   1.106       .  S
C3489      C3490   1.402       .  A
C3489      C3494   1.386       .  A
C3489      H3496   1.083       .  S
C3490      C3491   1.408   1_565  A
C3491      C3492   1.406       .  A
C3491      C3498   1.505       .  S
C3492      C3493   1.406   1_545  A
C3492      H3497   1.084       .  S
C3493      C3494   1.407       .  A
C3494      C3495   1.513       .  S
C3495      H3499   1.108       .  S
C3495      H3500   1.109       .  S
C3495      H3501   1.109       .  S
C3498      H3502   1.110       .  S
C3498      H3503   1.110       .  S
C3498      H3504   1.111       .  S
C3505      C3506   1.399       .  A
C3505      C3510   1.395       .  A
C3505      H3512   1.084       .  S
C3506      C3507   1.417       .  A
C3507      C3508   1.395   1_565  A
C3507      C3514   1.506       .  S
C3508      C3509   1.397       .  A
C3508      H3513   1.084       .  S
C3509      C3510   1.413   1_545  A
C3510      C3511   1.507       .  S
C3511      H3515   1.111       .  S
C3511      H3516   1.108       .  S
C3511      H3517   1.110   1_565  S
C3514      H3518   1.108       .  S
C3514      H3519   1.111       .  S
C3514      H3520   1.110       .  S
C3521      C3522   1.416       .  A
C3521      C3526   1.409       .  A
C3521      H3528   1.083       .  S
C3522      C3523   1.424       .  A
C3523      C3524   1.393       .  A
C3523      C3530   1.513       .  S
C3524      C3525   1.401       .  A
C3524      H3529   1.084       .  S
C3525      C3526   1.404       .  A
C3526      C3527   1.505       .  S
C3527      H3531   1.111       .  S
C3527      H3532   1.110       .  S
C3527      H3533   1.109       .  S
C3530      H3534   1.110       .  S
C3530      H3535   1.110       .  S
C3530      H3536   1.111       .  S
C3537      C3538   1.410       .  A
C3537      C3542   1.390       .  A
C3537      H3544   1.084       .  S
C3538      C3539   1.420       .  A
C3539      C3540   1.400       .  A
C3539      C3546   1.508       .  S
C3540      C3541   1.399       .  A
C3540      H3545   1.085       .  S
C3541      C3542   1.405       .  A
C3542      C3543   1.509       .  S
C3543      H3547   1.110       .  S
C3543      H3548   1.108       .  S
C3543      H3549   1.111       .  S
C3546      H3550   1.110       .  S
C3546      H3551   1.110       .  S
C3546      H3552   1.111       .  S
C3553      C3554   1.395       .  A
C3553      C3558   1.393       .  A
C3553      H3560   1.084       .  S
C3554      C3555   1.423       .  A
C3555      C3556   1.394       .  A
C3555      C3562   1.512       .  S
C3556      C3557   1.392       .  A
C3556      H3561   1.084       .  S
C3557      C3558   1.414       .  A
C3558      C3559   1.507       .  S
C3559      H3563   1.111       .  S
C3559      H3564   1.107       .  S
C3559      H3565   1.110       .  S
C3562      H3566   1.108       .  S
C3562      H3567   1.111       .  S
C3562      H3568   1.111       .  S
C3569      C3570   1.398       .  A
C3569      C3574   1.390       .  A
C3569      H3576   1.086       .  S
C3570      C3571   1.400       .  A
C3571      C3572   1.393       .  A
C3571      C3578   1.507       .  S
C3572      C3573   1.410       .  A
C3572      H3577   1.085       .  S
C3573      C3574   1.412       .  A
C3574      C3575   1.505       .  S
C3575      H3579   1.107       .  S
C3575      H3580   1.110       .  S
C3575      H3581   1.106       .  S
C3578      H3582   1.109       .  S
C3578      H3583   1.110       .  S
C3578      H3584   1.110       .  S
C3585      C3586   1.400       .  A
C3585      C3590   1.396       .  A
C3585      H3592   1.085       .  S
C3586      C3587   1.404   1_655  A
C3587      C3588   1.397       .  A
C3587      C3594   1.504       .  S
C3588      C3589   1.402   1_455  A
C3588      H3593   1.075       .  S
C3589      C3590   1.421       .  A
C3590      C3591   1.512       .  S
C3591      H3595   1.111       .  S
C3591      H3596   1.106       .  S
C3591      H3597   1.110       .  S
C3594      H3598   1.109       .  S
C3594      H3599   1.110       .  S
C3594      H3600   1.103       .  S
C3601      C3602   1.399       .  A
C3601      C3606   1.394       .  A
C3601      H3608   1.084       .  S
C3602      C3603   1.408       .  A
C3603      C3604   1.397       .  A
C3603      C3610   1.504       .  S
C3604      C3605   1.404   1_545  A
C3604      H3609   1.084   1_545  S
C3605      C3606   1.413   1_565  A
C3606      C3607   1.508   1_545  S
C3607      H3611   1.110   1_565  S
C3607      H3612   1.107       .  S
C3607      H3613   1.111       .  S
C3610      H3614   1.110       .  S
C3610      H3615   1.110   1_545  S
C3610      H3616   1.109       .  S
C3617      C3618   1.399       .  A
C3617      C3622   1.396       .  A
C3617      H3624   1.085       .  S
C3618      C3619   1.405       .  A
C3619      C3620   1.392       .  A
C3619      C3626   1.507   1_545  S
C3620      C3621   1.404       .  A
C3620      H3625   1.084       .  S
C3621      C3622   1.406       .  A
C3622      C3623   1.499       .  S
C3623      H3627   1.107       .  S
C3623      H3628   1.110       .  S
C3623      H3629   1.110       .  S
C3626      H3630   1.109   1_565  S
C3626      H3631   1.110       .  S
C3626      H3632   1.111   1_565  S
C3633      C3634   1.407       .  A
C3633      C3638   1.395       .  A
C3633      H3640   1.084       .  S
C3634      C3635   1.418   1_556  A
C3635      C3636   1.398   1_554  A
C3635      C3642   1.505       .  S
C3636      C3637   1.397       .  A
C3636      H3641   1.083   1_556  S
C3637      C3638   1.407       .  A
C3638      C3639   1.508       .  S
C3639      H3643   1.111       .  S
C3639      H3644   1.108       .  S
C3639      H3645   1.110       .  S
C3642      H3646   1.109       .  S
C3642      H3647   1.110       .  S
C3642      H3648   1.111       .  S
C3649      C3650   1.407       .  A
C3649      C3654   1.398       .  A
C3649      H3656   1.084       .  S
C3650      C3651   1.408       .  A
C3651      C3652   1.398   1_455  A
C3651      C3658   1.504       .  S
C3652      C3653   1.407   1_655  A
C3652      H3657   1.084       .  S
C3653      C3654   1.409       .  A
C3654      C3655   1.506       .  S
C3655      H3659   1.110       .  S
C3655      H3660   1.110       .  S
C3655      H3661   1.111       .  S
C3658      H3662   1.110       .  S
C3658      H3663   1.109   1_455  S
C3658      H3664   1.109       .  S
C3665      C3666   1.399       .  A
C3665      C3670   1.396       .  A
C3665      H3672   1.085   1_455  S
C3666      C3667   1.405       .  A
C3667      C3668   1.399       .  A
C3667      C3674   1.506       .  S
C3668      C3669   1.408       .  A
C3668      H3673   1.085       .  S
C3669      C3670   1.417       .  A
C3670      C3671   1.511       .  S
C3671      H3675   1.111   1_455  S
C3671      H3676   1.106       .  S
C3671      H3677   1.110       .  S
C3674      H3678   1.110       .  S
C3674      H3679   1.111       .  S
C3674      H3680   1.111       .  S
C3681      C3682   1.402       .  A
C3681      C3686   1.393       .  A
C3681      H3688   1.084   1_545  S
C3682      C3683   1.415       .  A
C3683      C3684   1.403       .  A
C3683      C3690   1.505       .  S
C3684      C3685   1.405       .  A
C3684      H3689   1.085       .  S
C3685      C3686   1.416       .  A
C3686      C3687   1.510       .  S
C3687      H3691   1.111   1_545  S
C3687      H3692   1.109       .  S
C3687      H3693   1.107       .  S
C3690      H3694   1.111   1_556  S
C3690      H3695   1.103       .  S
C3690      H3696   1.111       .  S
C3697      C3698   1.413       .  A
C3697      C3702   1.402       .  A
C3697      H3704   1.080       .  S
C3698      C3699   1.418       .  A
C3699      C3700   1.392       .  A
C3699      C3706   1.506   1_554  S
C3700      C3701   1.402       .  A
C3700      H3705   1.080   1_554  S
C3701      C3702   1.401       .  A
C3702      C3703   1.501       .  S
C3703      H3707   1.110       .  S
C3703      H3708   1.110       .  S
C3703      H3709   1.110       .  S
C3706      H3710   1.109   1_566  S
C3706      H3711   1.110       .  S
C3706      H3712   1.108       .  S
C3713      C3714   1.412       .  A
C3713      C3718   1.401       .  A
C3713      H3720   1.084       .  S
C3714      C3715   1.423       .  A
C3715      C3716   1.397       .  A
C3715      C3722   1.508       .  S
C3716      C3717   1.399       .  A
C3716      H3721   1.085       .  S
C3717      C3718   1.406       .  A
C3718      C3719   1.505       .  S
C3719      H3723   1.111       .  S
C3719      H3724   1.108       .  S
C3719      H3725   1.109       .  S
C3722      H3726   1.110       .  S
C3722      H3727   1.108       .  S
C3722      H3728   1.110       .  S
C3729      C3730   1.405       .  A
C3729      C3734   1.398       .  A
C3729      H3736   1.074       .  S
C3730      C3731   1.407       .  A
C3731      C3732   1.402       .  A
C3731      C3738   1.505       .  S
C3732      C3733   1.415       .  A
C3732      H3737   1.081       .  S
C3733      C3734   1.402       .  A
C3734      C3735   1.501       .  S
C3735      H3739   1.110       .  S
C3735      H3740   1.109       .  S
C3735      H3741   1.102       .  S
C3738      H3742   1.110       .  S
C3738      H3743   1.108       .  S
C3738      H3744   1.111       .  S
C3745      C3746   1.404       .  A
C3745      C3750   1.404       .  A
C3745      H3752   1.084       .  S
C3746      C3747   1.418       .  A
C3747      C3748   1.395       .  A
C3747      C3754   1.508       .  S
C3748      C3749   1.399       .  A
C3748      H3753   1.085       .  S
C3749      C3750   1.414       .  A
C3750      C3751   1.506       .  S
C3751      H3755   1.111       .  S
C3751      H3756   1.110       .  S
C3751      H3757   1.108       .  S
C3754      H3758   1.108       .  S
C3754      H3759   1.110       .  S
C3754      H3760   1.111       .  S
C3761      C3762   1.411       .  A
C3761      C3766   1.395       .  A
C3761      H3768   1.083       .  S
C3762      C3763   1.425       .  A
C3763      C3764   1.411       .  A
C3763      C3770   1.505       .  S
C3764      C3765   1.401       .  A
C3764      H3769   1.084       .  S
C3765      C3766   1.410       .  A
C3766      C3767   1.511       .  S
C3767      H3771   1.111       .  S
C3767      H3772   1.111       .  S
C3767      H3773   1.107       .  S
C3770      H3774   1.110       .  S
C3770      H3775   1.108       .  S
C3770      H3776   1.111       .  S
