geometry optimzed in LAMMPS
_audit_creation_date              2020-11-30 
_audit_creation_method            'lammps2cif' 
_symmetry_space_group_name_H-M    'P1' 
_symmetry_Int_Tables_number       1 
_symmetry_cell_setting            triclinic 
loop_ 
_symmetry_equiv_pos_as_xyz 
  x,y,z 
_cell_length_a                    39.03861095229183 
_cell_length_b                    76.4474192048951 
_cell_length_c                    60.37759583189955 
_cell_angle_alpha                 89.98379386813218 
_cell_angle_beta                  127.22875450678109 
_cell_angle_gamma                 90.14341992855245 
loop_ 
_atom_site_label 
_atom_site_type_symbol 
_atom_site_fract_x 
_atom_site_fract_y 
_atom_site_fract_z 
_atom_site_charge 
N1          N  0.70664102  0.26784722  0.08205992    -0.27300
N2          N  0.73346670  0.26496955  0.07597817    -0.35160
C3          C  0.75120672  0.24908424  0.08523546     0.01040
C4          C  0.73482799  0.24150616  0.09779157     0.07060
C5          C  0.70668092  0.25375573  0.09549011    -0.06040
H6          H  0.77383092  0.24338888  0.08256019     0.07730
H7          H  0.68735058  0.25246094  0.10274297     0.08930
Cu8        Cu  0.74289334  0.28204053  0.05370961     0.44170
Cu9        Cu  0.67118554  0.29085283  0.07089742     0.41990
Cu10       Cu  0.69226807  0.32341597  0.03451147     0.43880
N11         N  0.74265090  0.29847839  0.02658557    -0.34690
N12         N  0.72473500  0.31411797  0.01945723    -0.28940
C13         C  0.72577870  0.32048175  0.99899542    -0.05040
C14         C  0.74475684  0.30801466  0.49291882     0.07170
C15         C  0.75490677  0.29430326  0.01077561     0.00970
H16         H  0.71049553  0.33248256  0.48775946     0.08620
H17         H  0.76787609  0.28173270  0.01109431     0.07700
N18         N  0.65308277  0.32742483  0.04670738    -0.36140
N19         N  0.64353959  0.31563579  0.05832044    -0.28320
C20         C  0.61418868  0.32248179  0.06080589    -0.03560
C21         C  0.60544443  0.33939563  0.05063797     0.05050
C22         C  0.63073055  0.34207904  0.04201993     0.03150
H23         H  0.60049000  0.31568640  0.06951182     0.08250
H24         H  0.63180933  0.35367932  0.03218424     0.07090
N25         N  0.77723022  0.26532878  0.37721989    -0.27300
N26         N  0.75329854  0.26180787  0.38539986    -0.35160
C27         C  0.73414944  0.24616958  0.37516872     0.01040
C28         C  0.74663816  0.23947603  0.35979828     0.07060
C29         C  0.77398630  0.25195396  0.36153030    -0.06040
H30         H  0.71274304  0.24014306  0.37870818     0.07730
H31         H  0.79006738  0.25143018  0.35194426     0.08930
Cu32       Cu  0.74804312  0.27837256  0.41025585     0.44170
Cu33       Cu  0.81172692  0.28854723  0.38743720     0.41990
Cu34       Cu  0.79032110  0.32176069  0.42231657     0.43880
N35         N  0.74847625  0.29597473  0.43640558    -0.34690
N36         N  0.76245330  0.31227549  0.44039501    -0.28940
C37         C  0.76092956  0.31968582  0.46008944    -0.05040
C38         C  0.74582997  0.30726141  0.46901159     0.07170
C39         C  0.73841847  0.29244927  0.45360200     0.00970
H40         H  0.77299086  0.33260740  0.46873439     0.08620
H41         H  0.72815615  0.27976344  0.45557291     0.07700
N42         N  0.82763276  0.32582184  0.40871795    -0.36140
N43         N  0.83764588  0.31367550  0.39787559    -0.28320
C44         C  0.86598983  0.32045056  0.39438312    -0.03560
C45         C  0.87351897  0.33770189  0.40301375     0.05050
C46         C  0.84860751  0.34067903  0.41182513     0.03150
H47         H  0.87979255  0.31337644  0.38599845     0.08250
H48         H  0.84706543  0.35260093  0.42084013     0.07090
N49         N  0.70097479  0.19724598  0.32632995    -0.27300
N50         N  0.72685591  0.20016127  0.31947877    -0.35160
C51         C  0.74702527  0.21558282  0.33026292     0.01040
C52         C  0.73327753  0.22270342  0.34469612     0.07060
C53         C  0.70412606  0.21072492  0.34180910    -0.06040
H54         H  0.76995724  0.22117218  0.32773864     0.07730
H55         H  0.68641969  0.21173012  0.35025421     0.08930
Cu56       Cu  0.73293075  0.18307665  0.29547478     0.44170
Cu57       Cu  0.66315430  0.17488493  0.31424400     0.41990
Cu58       Cu  0.68078548  0.14121571  0.27819450     0.43880
N59         N  0.73181800  0.16538579  0.26911643    -0.34690
N60         N  0.71361886  0.14975047  0.26286488    -0.28940
C61         C  0.71511997  0.14247395  0.24306817    -0.05040
C62         C  0.73490503  0.15425268  0.23657313     0.07170
C63         C  0.74479628  0.16858268  0.25339870     0.00970
H64         H  0.69973771  0.13026824  0.23255481     0.08620
H65         H  0.75816735  0.18090298  0.25304821     0.07700
N66         N  0.64215851  0.13804550  0.29109596    -0.36140
N67         N  0.63359943  0.15046252  0.30238877    -0.28320
C68         C  0.60503304  0.14427108  0.30609240    -0.03560
C69         C  0.59587573  0.12708678  0.29718953     0.05050
C70         C  0.62004698  0.12354763  0.28796856     0.03150
H71         H  0.59282361  0.15158492  0.31529813     0.08250
H72         H  0.62086814  0.11139932  0.27911035     0.07090
N73         N  0.77306153  0.19759071  0.12536806    -0.27300
N74         N  0.74626084  0.20015176  0.13154845    -0.35160
C75         C  0.72842409  0.21608592  0.12266220     0.01040
C76         C  0.74477432  0.22395236  0.11024559     0.07060
C77         C  0.77292915  0.21185861  0.11226918    -0.06040
H78         H  0.70563810  0.22157601  0.12535104     0.07730
H79         H  0.79212501  0.21334243  0.10494625     0.08930
Cu80       Cu  0.73715027  0.18223762  0.15312186     0.44170
Cu81       Cu  0.80854945  0.17475346  0.13553483     0.41990
Cu82       Cu  0.79071998  0.14086040  0.17137069     0.43880
N83         N  0.73834243  0.16470576  0.17955983    -0.34690
N84         N  0.75748078  0.14929567  0.18649899    -0.28940
C85         C  0.75642281  0.14229942  0.20664872    -0.05040
C86         C  0.73598796  0.15405633  0.21263053     0.07170
C87         C  0.72521076  0.16805073  0.19513221     0.00970
H88         H  0.77252918  0.13035391  0.21773105     0.08620
H89         H  0.71128844  0.18031169  0.19498978     0.07700
N90         N  0.82807800  0.13763474  0.15746674    -0.36140
N91         N  0.83635172  0.15003417  0.14595497    -0.28320
C92         C  0.86360347  0.14369474  0.14122601    -0.03560
C93         C  0.87231548  0.12644203  0.14975578     0.05050
C94         C  0.84917883  0.12303286  0.15980817     0.03150
H95         H  0.87536284  0.15098969  0.13169766     0.08250
H96         H  0.84831007  0.11087872  0.16864565     0.07090
N97         N  0.88779508  0.91589370  0.17478462    -0.27300
N98         N  0.92281126  0.91014228  0.17852821    -0.35160
C99         C  0.93992395  0.92302059  0.17291704     0.01040
C100        C  0.91443243  0.93771297  0.16505747     0.07060
C101        C  0.88165794  0.93273323  0.16659651    -0.06040
H102        H  0.97008878  0.92204032  0.17586523     0.07730
H103        H  0.85703064  0.94104984  0.16392269     0.08930
Cu104      Cu  0.95025898  0.88630199  0.19605593     0.44170
Cu105      Cu  0.85488524  0.90077059  0.18519882     0.41990
Cu106      Cu  0.91023365  0.86037331  0.22543234     0.43880
N107        N  0.98188026  0.86491647  0.22103769    -0.34690
N108        N  0.96795255  0.85519873  0.23221300    -0.28940
C109        C  0.99822811  0.84323142  0.24906087    -0.05040
C110        C  0.03282405  0.84583179  0.24850923     0.07170
C111        C  0.02121196  0.85961118  0.23049676     0.00970
H112        H  0.99582814  0.83381015  0.26144329     0.08620
H113        H  0.04031526  0.86570340  0.22511547     0.07700
N114        N  0.85320954  0.86979422  0.21626683    -0.36140
N115        N  0.83265723  0.88391127  0.20121538    -0.28320
C116        C  0.79755749  0.88628715  0.20017531    -0.03560
C117        C  0.79622025  0.87315428  0.21539443     0.05050
C118        C  0.83208939  0.86303359  0.22547526     0.03150
H119        H  0.77578018  0.89724304  0.19022023     0.08250
H120        H  0.84263077  0.85180360  0.23903965     0.07090
N121        N  0.57878803  0.91478574  0.27706855    -0.27300
N122        N  0.54036152  0.91008139  0.26921134    -0.35160
C123        C  0.52253046  0.92342378  0.27337965     0.01040
C124        C  0.55120730  0.93730164  0.28467121     0.07060
C125        C  0.58648469  0.93135907  0.28652793    -0.06040
H126        H  0.48972597  0.92345974  0.26651521     0.07730
H127        H  0.61459689  0.93886423  0.29281988     0.08930
Cu128      Cu  0.51115332  0.88698561  0.24870856     0.44170
Cu129      Cu  0.61474461  0.89898049  0.27003647     0.41990
Cu130      Cu  0.56123606  0.85882359  0.22821024     0.43880
N131        N  0.48166081  0.86542366  0.22346543    -0.34690
N132        N  0.49931453  0.85482314  0.21570401    -0.28940
C133        C  0.46991907  0.84275006  0.19804135    -0.05040
C134        C  0.43207054  0.84617721  0.19452282     0.07170
C135        C  0.44083653  0.86057295  0.21098589     0.00970
H136        H  0.47537017  0.83258276  0.18804114     0.08620
H137        H  0.41900779  0.86728354  0.21348306     0.07700
N138        N  0.62070938  0.86796803  0.24094607    -0.36140
N139        N  0.64017472  0.88217094  0.25619384    -0.28320
C140        C  0.67633022  0.88488682  0.25856056    -0.03560
C141        C  0.67979133  0.87182038  0.24414806     0.05050
C142        C  0.64381875  0.86141759  0.23310731     0.03150
H143        H  0.69702612  0.89619697  0.26847752     0.08250
H144        H  0.63416510  0.85031487  0.21937274     0.07090
N145        N  0.51094204  0.10253214  0.29186737    -0.27300
N146        N  0.53880326  0.08999822  0.29819391    -0.35160
C147        C  0.57335693  0.09695753  0.30168109     0.01040
C148        C  0.56755012  0.11477837  0.29786718     0.07060
C149        C  0.52776874  0.11796956  0.29184778    -0.06040
H150        H  0.60030251  0.08949445  0.30600760     0.07730
H151        H  0.51122689  0.13038439  0.28621187     0.08930
Cu152      Cu  0.52857268  0.06371334  0.29982755     0.44170
Cu153      Cu  0.44923677  0.09724285  0.27973288     0.41990
Cu154      Cu  0.42610779  0.05006414  0.27833166     0.43880
N155        N  0.51178255  0.03770119  0.29593438    -0.34690
N156        N  0.47337999  0.03241639  0.28744238    -0.28940
C157        C  0.47111780  0.01488783  0.28456636    -0.05040
C158        C  0.50994002  0.00894317  0.29129206     0.07170
C159        C  0.53511592  0.02379239  0.29885835     0.00970
H160        H  0.44283541  0.00712196  0.27714769     0.08620
H161        H  0.56781494  0.02454757  0.30561386     0.07700
N162        N  0.38249971  0.07013344  0.26680030    -0.36140
N163        N  0.38978547  0.08700191  0.26621734    -0.28320
C164        C  0.35283442  0.09584534  0.25507766    -0.03560
C165        C  0.32131977  0.08399904  0.24900237     0.05050
C166        C  0.34121847  0.06788239  0.25656663     0.03150
H167        H  0.34908598  0.10980210  0.25140035     0.08250
H168        H  0.32627792  0.05530698  0.25376435     0.07090
N169        N  0.99129680  0.03187772  0.15463369    -0.27300
N170        N  0.95574971  0.03679611  0.15087309    -0.35160
C171        C  0.93516372  0.02260080  0.15060594     0.01040
C172        C  0.95918229  0.00796213  0.15476521     0.07060
C173        C  0.99441944  0.01433837  0.15692083    -0.06040
H174        H  0.90559486  0.02295982  0.14848062     0.07730
H175        H  0.02056303  0.00686382  0.16012843     0.08930
Cu176      Cu  0.93928196  0.06272014  0.14844599     0.44170
Cu177      Cu  0.03451184  0.04993839  0.15875327     0.41990
Cu178      Cu  0.01054629  0.09700187  0.15594546     0.43880
N179        N  0.92807078  0.08911316  0.14814745    -0.34690
N180        N  0.95257669  0.10183946  0.14981681    -0.28940
C181        C  0.93573109  0.11730912  0.14958776    -0.05040
C182        C  0.89950663  0.11398008  0.14820157     0.07170
C183        C  0.89577158  0.09601759  0.14733885     0.00970
H184        H  0.94995482  0.12995211  0.15169564     0.08620
H185        H  0.87168499  0.08844534  0.14664438     0.07700
N186        N  0.06892523  0.08704928  0.16701285    -0.36140
N187        N  0.07680995  0.07011891  0.16787767    -0.28320
C188        C  0.11840482  0.06789555  0.17894420    -0.03560
C189        C  0.13781730  0.08409731  0.18517679     0.05050
C190        C  0.10566741  0.09600052  0.17749208     0.03150
H191        H  0.13406172  0.05531427  0.18375954     0.08250
H192        H  0.10941851  0.10997286  0.18108870     0.07090
N193        N  0.19798113  0.70260368  0.07010809    -0.27300
N194        N  0.23113579  0.70459697  0.06957831    -0.35160
C195        C  0.24970939  0.72019341  0.08047067     0.01040
C196        C  0.22729102  0.72850648  0.08830171     0.07060
C197        C  0.19470443  0.71701399  0.08153278    -0.06040
H198        H  0.27704042  0.72520444  0.08203191     0.07730
H199        H  0.17014401  0.71905048  0.08434803     0.08930
Cu200      Cu  0.24817100  0.68715187  0.05197328     0.44170
Cu201      Cu  0.15843961  0.68049730  0.05431287     0.41990
Cu202      Cu  0.19863231  0.64615633  0.03243326     0.43880
N203        N  0.25089162  0.67073609  0.02620908    -0.34690
N204        N  0.23360530  0.65496056  0.01938285    -0.28940
C205        C  0.23208917  0.64899492  0.49782335    -0.05040
C206        C  0.24856994  0.66189037  0.49061375     0.07170
C207        C  0.26032795  0.67541621  0.00907947     0.00970
H208        H  0.21516523  0.63729448  0.48605607     0.08620
H209        H  0.27091416  0.68835500  0.00835932     0.07700
N210        N  0.14496580  0.64397699  0.03123206    -0.36140
N211        N  0.12828985  0.65642765  0.03726106    -0.28320
C212        C  0.08889439  0.65121901  0.02863264    -0.03560
C213        C  0.08083489  0.63480423  0.01662944     0.05050
C214        C  0.11712167  0.63065700  0.01886035     0.03150
H215        H  0.06710138  0.65910115  0.02984948     0.08250
H216        H  0.12193505  0.61929375  0.01037567     0.07090
N217        N  0.27734510  0.70530100  0.37523480    -0.27300
N218        N  0.25070455  0.70865396  0.38133996    -0.35160
C219        C  0.23076704  0.72392520  0.36977489     0.01040
C220        C  0.24552372  0.73055359  0.35568975     0.07060
C221        C  0.27504106  0.71844550  0.35955073    -0.06040
H222        H  0.20722939  0.72972332  0.37151086     0.07730
H223        H  0.29328908  0.71906862  0.35144951     0.08930
Cu224      Cu  0.24230068  0.69259039  0.40511833     0.44170
Cu225      Cu  0.31461337  0.68275626  0.38819265     0.41990
Cu226      Cu  0.27812797  0.64917775  0.41324209     0.43880
N227        N  0.24133444  0.67481594  0.43036994    -0.34690
N228        N  0.25221284  0.65824619  0.43226053    -0.28940
C229        C  0.25376977  0.65060811  0.45294698    -0.05040
C230        C  0.24407912  0.66317257  0.46479598     0.07170
C231        C  0.23624624  0.67831315  0.44996536     0.00970
H232        H  0.26546153  0.63751726  0.46062431     0.08620
H233        H  0.22998727  0.69118371  0.45421224     0.07700
N234        N  0.32788880  0.64615542  0.41056716    -0.36140
N235        N  0.34336387  0.65838405  0.40328137    -0.28320
C236        C  0.38106270  0.65277630  0.40957724    -0.03560
C237        C  0.38938142  0.63633676  0.42145960     0.05050
C238        C  0.35493228  0.63257571  0.42154622     0.03150
H239        H  0.40175663  0.66042903  0.40697792     0.08250
H240        H  0.35110884  0.62131624  0.43073186     0.07090
N241        N  0.26627783  0.77173646  0.11918093    -0.27300
N242        N  0.23353326  0.76983625  0.12015849    -0.35160
C243        C  0.21437136  0.75433515  0.10903848     0.01040
C244        C  0.23607657  0.74601660  0.10066245     0.07060
C245        C  0.26875118  0.75739637  0.10730831    -0.06040
H246        H  0.18732205  0.74934742  0.10782757     0.07730
H247        H  0.29299620  0.75529748  0.10422373     0.08930
Cu248      Cu  0.21837098  0.78730772  0.13886943     0.44170
Cu249      Cu  0.30705731  0.79342931  0.13525107     0.41990
Cu250      Cu  0.26901220  0.82833797  0.15713436     0.43880
N251        N  0.21762052  0.80425359  0.16497871    -0.34690
N252        N  0.23484127  0.82003940  0.17101666    -0.28940
C253        C  0.23747639  0.82643683  0.19277551    -0.05040
C254        C  0.22181750  0.81383371  0.20096217     0.07170
C255        C  0.20939570  0.80000598  0.18287459     0.00970
H256        H  0.25467219  0.83823579  0.20401386     0.08620
H257        H  0.19909418  0.78717843  0.18430317     0.07700
N258        N  0.32404210  0.82958260  0.15977943    -0.36140
N259        N  0.33981067  0.81685468  0.15354556    -0.28320
C260        C  0.38049049  0.82107679  0.16367271    -0.03560
C261        C  0.39043852  0.83709469  0.17704455     0.05050
C262        C  0.35385430  0.84207772  0.17392551     0.03150
H263        H  0.40197880  0.81263982  0.16292092     0.08250
H264        H  0.35006432  0.85335163  0.18307734     0.07090
N265        N  0.19879710  0.77177380  0.31927684    -0.27300
N266        N  0.22610807  0.76869580  0.31363389    -0.35160
C267        C  0.24698548  0.75365911  0.32578248     0.01040
C268        C  0.23214748  0.74692217  0.33976814     0.07060
C269        C  0.20164602  0.75871695  0.33525653    -0.06040
H270        H  0.27096781  0.74802677  0.32433774     0.07730
H271        H  0.18272328  0.75784357  0.34285469     0.08930
Cu272      Cu  0.23343275  0.78463312  0.28919025     0.44170
Cu273      Cu  0.15875086  0.79352009  0.30465327     0.41990
Cu274      Cu  0.19058495  0.82712520  0.27706946     0.43880
N275        N  0.23230060  0.80208016  0.26272060    -0.34690
N276        N  0.21886837  0.81837051  0.25942761    -0.28940
C277        C  0.21606146  0.82563600  0.23807366    -0.05040
C278        C  0.22762640  0.81311655  0.22725467     0.07170
C279        C  0.23782307  0.79838946  0.24336695     0.00970
H280        H  0.20199568  0.83828264  0.22915488     0.08620
H281        H  0.24568409  0.78557444  0.24003486     0.07700
N282        N  0.13885248  0.82900208  0.27794191    -0.36140
N283        N  0.12540665  0.81673014  0.28652042    -0.28320
C284        C  0.08601981  0.82113494  0.27862882    -0.03560
C285        C  0.07437014  0.83677301  0.26418483     0.05050
C286        C  0.10868201  0.84136675  0.26436258     0.03150
H287        H  0.06635076  0.81303881  0.28161935     0.08250
H288        H  0.11052329  0.85228275  0.25371638     0.07090
N289        N  0.90190709  0.55170224  0.42901688    -0.27300
N290        N  0.94173017  0.55563046  0.43883595    -0.35160
C291        C  0.96074343  0.54137010  0.43778531     0.01360
C292        C  0.93165286  0.52765792  0.42711299     0.07060
C293        C  0.89441569  0.53475197  0.42142965    -0.06040
H294        H  0.99394896  0.54081738  0.44545010     0.07730
H295        H  0.86439634  0.52805345  0.41296711     0.08930
Cu296      Cu  0.96932346  0.57960892  0.45617707     0.44170
Cu297      Cu  0.86261230  0.56941761  0.42996054     0.41990
Cu298      Cu  0.91141495  0.61144870  0.46621312     0.43880
N299        N  0.99502031  0.60302469  0.47684027    -0.34690
N300        N  0.97462223  0.61485762  0.48083291    -0.28940
C301        C  0.00186701  0.62817939  0.49588671    -0.05040
C302        C  0.04111187  0.62436627  0.50153761     0.07170
C303        C  0.03546454  0.60837670  0.48912447     0.00970
H304        H  0.99374003  0.63968240  0.50224807     0.08620
H305        H  0.05904838  0.60103502  0.48905691     0.07700
N306        N  0.85093258  0.60275331  0.45211331    -0.36140
N307        N  0.83339757  0.58776048  0.43890276    -0.28320
C308        C  0.79649665  0.58530616  0.43564916    -0.03560
C309        C  0.79050765  0.59938382  0.44725193     0.05050
C310        C  0.82559766  0.61016640  0.45761736     0.03150
H311        H  0.77712166  0.57354136  0.42730409     0.08250
H312        H  0.83363600  0.62189056  0.46992085     0.07090
N313        N  0.56144533  0.55047037  0.49544577    -0.27300
N314        N  0.52519861  0.55556694  0.49060277    -0.35160
C315        C  0.50753903  0.54206495  0.49467574     0.01040
C316        C  0.53417341  0.52772840  0.00280084     0.07060
C317        C  0.56801720  0.53350466  0.00292910    -0.06040
H318        H  0.47679276  0.54248885  0.49103145     0.07730
H319        H  0.59413804  0.52572884  0.00663604     0.08930
Cu320      Cu  0.49940780  0.58004435  0.47570706     0.44170
Cu321      Cu  0.59642202  0.56681073  0.48827891     0.41990
Cu322      Cu  0.55207290  0.61088509  0.45991323     0.43880
N323        N  0.47375151  0.60380699  0.45669408    -0.34690
N324        N  0.49231489  0.61529439  0.45065142    -0.28940
C325        C  0.46535000  0.62887038  0.43705481    -0.05040
C326        C  0.42819856  0.62558204  0.43449569     0.07170
C327        C  0.43478171  0.60964332  0.44721905     0.00970
H328        H  0.47208294  0.64011593  0.42935858     0.08620
H329        H  0.41268501  0.60260262  0.44919119     0.07700
N330        N  0.60743853  0.60093647  0.46722235    -0.36140
N331        N  0.62280327  0.58507652  0.47694030    -0.28320
C332        C  0.65681723  0.58244473  0.47695397    -0.03560
C333        C  0.66306182  0.59723494  0.46653654     0.05050
C334        C  0.63148257  0.60879261  0.46097246     0.03150
H335        H  0.67487240  0.57038059  0.48325954     0.08250
H336        H  0.62597963  0.62191500  0.45280183     0.07090
N337        N  0.95999213  0.36250000  0.41069023    -0.27300
N338        N  0.93428239  0.37523129  0.40725400    -0.35160
C339        C  0.89934131  0.36827103  0.40326900     0.01040
C340        C  0.90274010  0.35029995  0.40381603     0.07060
C341        C  0.94144282  0.34701903  0.40839295    -0.06040
H342        H  0.87376475  0.37578767  0.40077397     0.07730
H343        H  0.95613912  0.33438833  0.41142477     0.08930
Cu344      Cu  0.94749811  0.40163533  0.40946984     0.44170
Cu345      Cu  0.02138393  0.36704145  0.42202261     0.41990
Cu346      Cu  0.05039729  0.41367044  0.42994931     0.43880
N347        N  0.96666588  0.42742056  0.41396055    -0.34690
N348        N  0.00517482  0.43199830  0.42185291    -0.28940
C349        C  0.00896926  0.44951961  0.42434868    -0.05040
C350        C  0.97062979  0.45631824  0.41732008     0.07170
C351        C  0.94475999  0.44185282  0.41108287     0.00970
H352        H  0.03810924  0.45664368  0.43186140     0.08620
H353        H  0.91262099  0.44179082  0.40539030     0.07700
N354        N  0.09123760  0.39320113  0.43820547    -0.36140
N355        N  0.08165122  0.37635353  0.43598990    -0.28320
C356        C  0.11665275  0.36693739  0.44409754    -0.03560
C357        C  0.14935959  0.37849141  0.45150868     0.05050
C358        C  0.13210922  0.39494390  0.44738808     0.03150
H359        H  0.11803675  0.35280101  0.44433455     0.08250
H360        H  0.14825641  0.40732665  0.45104952     0.07090
N361        N  0.51749659  0.36423629  0.04093273    -0.27300
N362        N  0.54062013  0.37681572  0.04068995    -0.35160
C363        C  0.57569942  0.36985592  0.04502042     0.01040
C364        C  0.57514044  0.35204963  0.04838289     0.07060
C365        C  0.53791832  0.34886288  0.04584938    -0.06040
H366        H  0.59928809  0.37722155  0.04490048     0.07730
H367        H  0.52540447  0.33624675  0.04596255     0.08930
Cu368      Cu  0.52390529  0.40290152  0.03251262     0.44170
Cu369      Cu  0.45662088  0.36857282  0.03071350     0.41990
Cu370      Cu  0.42199768  0.41455376  0.01223096     0.43880
N371        N  0.50194859  0.42832771  0.02255323    -0.34690
N372        N  0.46368721  0.43279839  0.01507693    -0.28940
C373        C  0.45792173  0.45003953  0.00956449    -0.05040
C374        C  0.49431814  0.45670211  0.01347382     0.07170
C375        C  0.52171167  0.44254934  0.02200865     0.00970
H376        H  0.42959149  0.45716803  0.00355580     0.08620
H377        H  0.55350708  0.44254893  0.02715567     0.07700
N378        N  0.38325260  0.39411310  0.00750574    -0.36140
N379        N  0.39502904  0.37757273  0.01437594    -0.28320
C380        C  0.36033428  0.36806038  0.00692860    -0.03560
C381        C  0.32533051  0.37918598  0.49445216     0.05050
C382        C  0.34113750  0.39553122  0.49540151     0.03150
H383        H  0.36024303  0.35404613  0.00938592     0.08250
H384        H  0.32307683  0.40758475  0.48732115     0.07090
C385        C  0.20445036  0.37961097  0.44376216    -0.09170
C386        C  0.19326064  0.37474947  0.46099429     0.07030
C387        C  0.22544409  0.36890027  0.48821731    -0.02940
C388        C  0.26862502  0.36903969  0.99835759    -0.07390
C389        C  0.28000221  0.37508301  0.48164736     0.06140
C390        C  0.24738972  0.37970650  0.45379848    -0.02410
Br391      Br  0.25997929  0.38665541  0.42884446    -0.02110
H392        H  0.17981157  0.38402439  0.42273670     0.10050
H393        H  0.29349933  0.36556521  0.01984979     0.08070
Br394      Br  0.21239960  0.36252611  0.01311035    -0.02530
C395        C  0.48287868  0.50299146  0.48652792    -0.09170
C396        C  0.52453376  0.50962703  0.00614119     0.07030
C397        C  0.55580392  0.49882825  0.02821937    -0.02940
C398        C  0.54514167  0.48170156  0.03017152    -0.07390
C399        C  0.50351467  0.47500419  0.01048696     0.06140
C400        C  0.47224462  0.48583205  0.48832316    -0.02410
Br401      Br  0.41575850  0.47768379  0.45844328    -0.02110
H402        H  0.45869335  0.51105909  0.46919434     0.10050
H403        H  0.56944351  0.47364450  0.04746467     0.08070
Br404      Br  0.61263446  0.50705824  0.05728773    -0.02530
C405        C  0.96339123  0.50606887  0.41357104    -0.09170
C406        C  0.94025836  0.50930969  0.42406866     0.07030
C407        C  0.92745523  0.49502224  0.43233576    -0.02940
C408        C  0.93743129  0.47797428  0.42966981    -0.07390
C409        C  0.96058751  0.47470003  0.41919269     0.06140
C410        C  0.97338821  0.48899413  0.41090552    -0.02410
Br411      Br  0.00182970  0.48617672  0.39403367    -0.02110
H412        H  0.97324677  0.51690514  0.40700491     0.10050
H413        H  0.92795853  0.46720157  0.43657428     0.08070
Br414      Br  0.89982148  0.49779252  0.44975184    -0.02530
C415        C  0.73689533  0.59208818  0.48153483    -0.09170
C416        C  0.69613735  0.59947321  0.46202551     0.07030
C417        C  0.68754575  0.60765120  0.43809296    -0.02940
C418        C  0.71929961  0.60802006  0.43406277    -0.07390
C419        C  0.75942890  0.60028915  0.45334482     0.06140
C420        C  0.76834885  0.59241638  0.47734254    -0.02410
Br421      Br  0.82252812  0.58139745  0.50445655    -0.02110
H422        H  0.74409718  0.58596109  0.00007788     0.10050
H423        H  0.71217469  0.61386646  0.41534269     0.08070
Br424      Br  0.63229242  0.61692419  0.40865058    -0.02530
C425        C  0.20992277  0.08109727  0.23005488    -0.09170
C426        C  0.18461114  0.08712777  0.20254041     0.07030
C427        C  0.20478285  0.09402249  0.19145427    -0.02940
C428        C  0.24983421  0.09404370  0.20757356    -0.07390
C429        C  0.27502809  0.08705660  0.23458066     0.06140
C430        C  0.25476223  0.08106100  0.24609549    -0.02410
Br431      Br  0.28691801  0.07261184  0.28359686    -0.02110
H432        H  0.19464458  0.07588407  0.23881409     0.10050
H433        H  0.26507526  0.09856669  0.19843610     0.08070
Br434      Br  0.17207999  0.10193844  0.15368753    -0.02530
C435        C  0.50882978  0.97707593  0.29916718    -0.09170
C436        C  0.52139442  0.99071792  0.28989509     0.07030
C437        C  0.54437835  0.98660292  0.27938429    -0.02940
C438        C  0.55474153  0.96921636  0.27872694    -0.07390
C439        C  0.54204697  0.95555831  0.28786568     0.06140
C440        C  0.51903638  0.95964503  0.29835859    -0.02410
Br441      Br  0.50280880  0.94225185  0.31340862    -0.02110
H442        H  0.49150027  0.98001430  0.30750172     0.10050
H443        H  0.57149211  0.96631092  0.26998855     0.08070
Br444      Br  0.55901784  0.00367494  0.26298820    -0.02530
C445        C  0.96829991  0.96118484  0.17938786    -0.09170
C446        C  0.92529826  0.95554280  0.16140616     0.07030
C447        C  0.89402873  0.96708234  0.14075761    -0.02940
C448        C  0.90597531  0.98396714  0.13881386    -0.07390
C449        C  0.94890146  0.98967905  0.15700113     0.06140
C450        C  0.98027125  0.97806422  0.17752420    -0.02410
Br451      Br  0.03908915  0.98478574  0.20535621    -0.02110
H452        H  0.99267356  0.95258713  0.19564577     0.10050
H453        H  0.88154515  0.99266204  0.12278874     0.08070
Br454      Br  0.83514533  0.96025194  0.11360293    -0.02530
C455        C  0.69445127  0.86887063  0.20962254    -0.09170
C456        C  0.71045500  0.87110360  0.23746568     0.07030
C457        C  0.75514507  0.87309949  0.25811627    -0.02940
C458        C  0.78274575  0.87326860  0.25059488    -0.07390
C459        C  0.76644981  0.87176598  0.22264125     0.06140
C460        C  0.72200926  0.86934035  0.20209117    -0.02410
Br461      Br  0.69774911  0.86612155  0.16365658    -0.02110
H462        H  0.66023164  0.86718909  0.19354651     0.10050
H463        H  0.81701239  0.87492447  0.26657735     0.08070
Br464      Br  0.78036480  0.87493108  0.29691164    -0.02530
N465        N  0.70664096  0.26784720  0.58205987    -0.27300
N466        N  0.73346663  0.26496953  0.57597812    -0.35160
C467        C  0.75120664  0.24908422  0.58523540     0.01040
C468        C  0.73482791  0.24150614  0.59779152     0.07060
C469        C  0.70668086  0.25375571  0.59549006    -0.06040
H470        H  0.77383084  0.24338886  0.58256013     0.07730
H471        H  0.68735052  0.25246093  0.60274292     0.08930
Cu472      Cu  0.74289328  0.28204052  0.55370956     0.44170
Cu473      Cu  0.67118549  0.29085282  0.57089737     0.41990
Cu474      Cu  0.69226805  0.32341596  0.53451144     0.43880
N475        N  0.74265087  0.29847838  0.52658553    -0.34690
N476        N  0.72473498  0.31411796  0.51945720    -0.28940
C477        C  0.72577870  0.32048174  0.49899540    -0.05040
C478        C  0.74475685  0.30801467  0.99291884     0.07170
C479        C  0.75490674  0.29430325  0.51077558     0.00970
H480        H  0.71049552  0.33248256  0.98775947     0.08620
H481        H  0.76787605  0.28173269  0.51109427     0.07700
N482        N  0.65308274  0.32742482  0.54670735    -0.36140
N483        N  0.64353956  0.31563578  0.55832040    -0.28320
C484        C  0.61418864  0.32248179  0.56080585    -0.03560
C485        C  0.60544440  0.33939563  0.55063794     0.05050
C486        C  0.63073053  0.34207903  0.54201990     0.03150
H487        H  0.60048996  0.31568639  0.56951178     0.08250
H488        H  0.63180932  0.35367931  0.53218422     0.07090
N489        N  0.77723025  0.26532878  0.87721993    -0.27300
N490        N  0.75329858  0.26180786  0.88539990    -0.35160
C491        C  0.73414948  0.24616957  0.87516876     0.01040
C492        C  0.74663820  0.23947603  0.85979832     0.07060
C493        C  0.77398634  0.25195395  0.86153034    -0.06040
H494        H  0.71274308  0.24014305  0.87870822     0.07730
H495        H  0.79006742  0.25143018  0.85194430     0.08930
Cu496      Cu  0.74804315  0.27837255  0.91025589     0.44170
Cu497      Cu  0.81172696  0.28854723  0.88743723     0.41990
Cu498      Cu  0.79032110  0.32176068  0.92231658     0.43880
N499        N  0.74847626  0.29597473  0.93640561    -0.34690
N500        N  0.76245331  0.31227549  0.94039503    -0.28940
C501        C  0.76092956  0.31968582  0.96008945    -0.05040
C502        C  0.74582998  0.30726142  0.96901161     0.07170
C503        C  0.73841849  0.29244926  0.95360203     0.00970
H504        H  0.77299085  0.33260740  0.96873439     0.08620
H505        H  0.72815618  0.27976343  0.95557295     0.07700
N506        N  0.82763278  0.32582184  0.90871798    -0.36140
N507        N  0.83764591  0.31367550  0.89787563    -0.28320
C508        C  0.86598986  0.32045056  0.89438316    -0.03560
C509        C  0.87351899  0.33770189  0.90301378     0.05050
C510        C  0.84860753  0.34067903  0.91182516     0.03150
H511        H  0.87979259  0.31337643  0.88599850     0.08250
H512        H  0.84706543  0.35260093  0.92084015     0.07090
N513        N  0.70097482  0.19724598  0.82632998    -0.27300
N514        N  0.72685594  0.20016127  0.81947880    -0.35160
C515        C  0.74702531  0.21558281  0.83026295     0.01040
C516        C  0.73327757  0.22270341  0.84469615     0.07060
C517        C  0.70412610  0.21072492  0.84180914    -0.06040
H518        H  0.76995727  0.22117217  0.82773867     0.07730
H519        H  0.68641973  0.21173011  0.85025425     0.08930
Cu520      Cu  0.73293078  0.18307665  0.79547480     0.44170
Cu521      Cu  0.66315432  0.17488492  0.81424403     0.41990
Cu522      Cu  0.68078549  0.14121571  0.77819452     0.43880
N523        N  0.73181802  0.16538579  0.76911645    -0.34690
N524        N  0.71361887  0.14975048  0.76286489    -0.28940
C525        C  0.71511998  0.14247396  0.74306818    -0.05040
C526        C  0.73490504  0.15425269  0.73657314     0.07170
C527        C  0.74479629  0.16858268  0.75339871     0.00970
H528        H  0.69973773  0.13026824  0.73255482     0.08620
H529        H  0.75816736  0.18090298  0.75304822     0.07700
N530        N  0.64215852  0.13804550  0.79109596    -0.36140
N531        N  0.63359945  0.15046251  0.80238878    -0.28320
C532        C  0.60503305  0.14427108  0.80609240    -0.03560
C533        C  0.59587573  0.12708679  0.79718953     0.05050
C534        C  0.62004698  0.12354763  0.78796856     0.03150
H535        H  0.59282362  0.15158492  0.81529814     0.08250
H536        H  0.62086814  0.11139933  0.77911035     0.07090
N537        N  0.77306147  0.19759070  0.62536802    -0.27300
N538        N  0.74626079  0.20015175  0.63154842    -0.35160
C539        C  0.72842403  0.21608591  0.62266216     0.01040
C540        C  0.74477425  0.22395234  0.61024554     0.07060
C541        C  0.77292908  0.21185860  0.61226914    -0.06040
H542        H  0.70563805  0.22157600  0.62535101     0.07730
H543        H  0.79212493  0.21334241  0.60494619     0.08930
Cu544      Cu  0.73715024  0.18223762  0.65312185     0.44170
Cu545      Cu  0.80854940  0.17475345  0.63553480     0.41990
Cu546      Cu  0.79071997  0.14086040  0.67137069     0.43880
N547        N  0.73834242  0.16470576  0.67955984    -0.34690
N548        N  0.75748078  0.14929567  0.68649900    -0.28940
C549        C  0.75642282  0.14229942  0.70664872    -0.05040
C550        C  0.73598797  0.15405634  0.71263054     0.07170
C551        C  0.72521077  0.16805073  0.69513221     0.00970
H552        H  0.77252919  0.13035391  0.71773105     0.08620
H553        H  0.71128844  0.18031169  0.69498978     0.07700
N554        N  0.82807798  0.13763474  0.65746673    -0.36140
N555        N  0.83635169  0.15003416  0.64595495    -0.28320
C556        C  0.86360344  0.14369473  0.64122599    -0.03560
C557        C  0.87231546  0.12644203  0.64975577     0.05050
C558        C  0.84917881  0.12303286  0.65980817     0.03150
H559        H  0.87536279  0.15098968  0.63169763     0.08250
H560        H  0.84831006  0.11087871  0.66864566     0.07090
N561        N  0.88779507  0.91589370  0.67478460    -0.27300
N562        N  0.92281124  0.91014228  0.67852819    -0.35160
C563        C  0.93992393  0.92302059  0.67291702     0.01040
C564        C  0.91443241  0.93771297  0.66505745     0.07060
C565        C  0.88165793  0.93273322  0.66659648    -0.06040
H566        H  0.97008876  0.92204032  0.67586521     0.07730
H567        H  0.85703063  0.94104984  0.66392267     0.08930
Cu568      Cu  0.95025897  0.88630199  0.69605592     0.44170
Cu569      Cu  0.85488523  0.90077060  0.68519881     0.41990
Cu570      Cu  0.91023364  0.86037332  0.72543233     0.43880
N571        N  0.98188025  0.86491648  0.72103768    -0.34690
N572        N  0.96795255  0.85519873  0.73221299    -0.28940
C573        C  0.99822810  0.84323142  0.74906086    -0.05040
C574        C  0.03282404  0.84583179  0.74850922     0.07170
C575        C  0.02121195  0.85961118  0.73049675     0.00970
H576        H  0.99582813  0.83381016  0.76144329     0.08620
H577        H  0.04031525  0.86570340  0.72511546     0.07700
N578        N  0.85320954  0.86979423  0.71626682    -0.36140
N579        N  0.83265723  0.88391127  0.70121537    -0.28320
C580        C  0.79755748  0.88628715  0.70017530    -0.03560
C581        C  0.79622024  0.87315429  0.71539443     0.05050
C582        C  0.83208939  0.86303360  0.72547525     0.03150
H583        H  0.77578017  0.89724304  0.69022022     0.08250
H584        H  0.84263077  0.85180360  0.73903965     0.07090
N585        N  0.57878803  0.91478575  0.77706855    -0.27300
N586        N  0.54036153  0.91008139  0.76921134    -0.35160
C587        C  0.52253046  0.92342378  0.77337966     0.01040
C588        C  0.55120730  0.93730164  0.78467121     0.07060
C589        C  0.58648468  0.93135907  0.78652793    -0.06040
H590        H  0.48972597  0.92345974  0.76651522     0.07730
H591        H  0.61459689  0.93886423  0.79281988     0.08930
Cu592      Cu  0.51115333  0.88698561  0.74870857     0.44170
Cu593      Cu  0.61474461  0.89898049  0.77003647     0.41990
Cu594      Cu  0.56123606  0.85882360  0.72821024     0.43880
N595        N  0.48166082  0.86542366  0.72346544    -0.34690
N596        N  0.49931453  0.85482314  0.71570401    -0.28940
C597        C  0.46991907  0.84275007  0.69804135    -0.05040
C598        C  0.43207055  0.84617721  0.69452282     0.07170
C599        C  0.44083654  0.86057295  0.71098590     0.00970
H600        H  0.47537016  0.83258277  0.68804114     0.08620
H601        H  0.41900780  0.86728354  0.71348307     0.07700
N602        N  0.62070938  0.86796804  0.74094606    -0.36140
N603        N  0.64017472  0.88217094  0.75619383    -0.28320
C604        C  0.67633022  0.88488683  0.75856056    -0.03560
C605        C  0.67979133  0.87182039  0.74414806     0.05050
C606        C  0.64381874  0.86141759  0.73310730     0.03150
H607        H  0.69702612  0.89619698  0.76847752     0.08250
H608        H  0.63416509  0.85031488  0.71937274     0.07090
N609        N  0.51094202  0.10253214  0.79186736    -0.27300
N610        N  0.53880325  0.08999822  0.79819390    -0.35160
C611        C  0.57335692  0.09695754  0.80168108     0.01040
C612        C  0.56755011  0.11477837  0.79786718     0.07060
C613        C  0.52776874  0.11796956  0.79184777    -0.06040
H614        H  0.60030250  0.08949445  0.80600760     0.07730
H615        H  0.51122688  0.13038439  0.78621186     0.08930
Cu616      Cu  0.52857267  0.06371334  0.79982754     0.44170
Cu617      Cu  0.44923675  0.09724285  0.77973286     0.41990
Cu618      Cu  0.42610778  0.05006415  0.77833165     0.43880
N619        N  0.51178254  0.03770119  0.79593437    -0.34690
N620        N  0.47337997  0.03241639  0.78744237    -0.28940
C621        C  0.47111779  0.01488783  0.78456635    -0.05040
C622        C  0.50994001  0.00894317  0.79129205     0.07170
C623        C  0.53511591  0.02379239  0.79885834     0.00970
H624        H  0.44283540  0.00712196  0.77714768     0.08620
H625        H  0.56781492  0.02454757  0.80561385     0.07700
N626        N  0.38249969  0.07013344  0.76680028    -0.36140
N627        N  0.38978546  0.08700191  0.76621732    -0.28320
C628        C  0.35283440  0.09584534  0.75507765    -0.03560
C629        C  0.32131976  0.08399904  0.74900236     0.05050
C630        C  0.34121845  0.06788239  0.75656661     0.03150
H631        H  0.34908597  0.10980210  0.75140034     0.08250
H632        H  0.32627791  0.05530698  0.75376433     0.07090
N633        N  0.99129679  0.03187772  0.65463367    -0.27300
N634        N  0.95574970  0.03679611  0.65087307    -0.35160
C635        C  0.93516370  0.02260080  0.65060592     0.01040
C636        C  0.95918227  0.00796213  0.65476519     0.07060
C637        C  0.99441943  0.01433837  0.65692081    -0.06040
H638        H  0.90559485  0.02295982  0.64848060     0.07730
H639        H  0.02056301  0.00686382  0.66012840     0.08930
Cu640      Cu  0.93928194  0.06272013  0.64844598     0.44170
Cu641      Cu  0.03451182  0.04993839  0.65875325     0.41990
Cu642      Cu  0.01054627  0.09700187  0.65594545     0.43880
N643        N  0.92807076  0.08911316  0.64814744    -0.34690
N644        N  0.95257667  0.10183946  0.64981680    -0.28940
C645        C  0.93573107  0.11730912  0.64958775    -0.05040
C646        C  0.89950661  0.11398007  0.64820156     0.07170
C647        C  0.89577156  0.09601758  0.64733885     0.00970
H648        H  0.94995480  0.12995211  0.65169563     0.08620
H649        H  0.87168498  0.08844534  0.64664437     0.07700
N650        N  0.06892521  0.08704928  0.66701283    -0.36140
N651        N  0.07680994  0.07011891  0.66787765    -0.28320
C652        C  0.11840481  0.06789555  0.67894419    -0.03560
C653        C  0.13781728  0.08409731  0.68517678     0.05050
C654        C  0.10566739  0.09600052  0.67749207     0.03150
H655        H  0.13406170  0.05531427  0.68375953     0.08250
H656        H  0.10941849  0.10997287  0.68108870     0.07090
N657        N  0.19798122  0.70260374  0.57010815    -0.27300
N658        N  0.23113585  0.70459700  0.56957834    -0.35160
C659        C  0.24970943  0.72019343  0.58047069     0.01040
C660        C  0.22729104  0.72850650  0.58830173     0.07060
C661        C  0.19470447  0.71701403  0.58153282    -0.06040
H662        H  0.27704046  0.72520446  0.58203193     0.07730
H663        H  0.17014403  0.71905051  0.58434805     0.08930
Cu664      Cu  0.24817101  0.68715187  0.55197330     0.44170
Cu665      Cu  0.15843991  0.68049758  0.55431307     0.41990
Cu666      Cu  0.19863327  0.64615651  0.53243349     0.43880
N667        N  0.25089169  0.67073611  0.52620908    -0.34690
N668        N  0.23360547  0.65496058  0.51938286    -0.28940
C669        C  0.23208913  0.64899492  0.99782336    -0.05040
C670        C  0.24856995  0.66189037  0.99061379     0.07170
C671        C  0.26032797  0.67541622  0.50907944     0.00970
H672        H  0.21516519  0.63729448  0.98605604     0.08620
H673        H  0.27091417  0.68835501  0.50835929     0.07700
N674        N  0.14496897  0.64397781  0.53123323    -0.36140
N675        N  0.12829195  0.65642824  0.53726179    -0.28320
C676        C  0.08889715  0.65121920  0.52863346    -0.03560
C677        C  0.08084131  0.63480451  0.51663127     0.05050
C678        C  0.11712687  0.63065759  0.51886195     0.03150
H679        H  0.06710283  0.65910094  0.52984966     0.08250
H680        H  0.12194107  0.61929452  0.51037739     0.07090
N681        N  0.27734487  0.70530119  0.87523469    -0.27300
N682        N  0.25070439  0.70865403  0.88133990    -0.35160
C683        C  0.23076689  0.72392525  0.86977483     0.01040
C684        C  0.24552359  0.73055365  0.85568968     0.07060
C685        C  0.27504090  0.71844561  0.85955062    -0.06040
H686        H  0.20722925  0.72972336  0.87151080     0.07730
H687        H  0.29328897  0.71906870  0.85144944     0.08930
Cu688      Cu  0.24230065  0.69259039  0.90511830     0.44170
Cu689      Cu  0.31461265  0.68275704  0.88819221     0.41990
Cu690      Cu  0.27812521  0.64917831  0.91324157     0.43880
N691        N  0.24133426  0.67481603  0.93037000    -0.34690
N692        N  0.25221236  0.65824628  0.93226057    -0.28940
C693        C  0.25376964  0.65060814  0.95294705    -0.05040
C694        C  0.24407912  0.66317259  0.96479605     0.07170
C695        C  0.23624621  0.67831321  0.94996545     0.00970
H696        H  0.26546136  0.63751726  0.96062427     0.08620
H697        H  0.22998730  0.69118376  0.95421237     0.07700
N698        N  0.32788101  0.64615741  0.91056478    -0.36140
N699        N  0.34335877  0.65838547  0.90328005    -0.28320
C700        C  0.38105587  0.65277655  0.90957566    -0.03560
C701        C  0.38936637  0.63633700  0.92145569     0.05050
C702        C  0.35491963  0.63257696  0.92154283     0.03150
H703        H  0.40175271  0.66042822  0.90697755     0.08250
H704        H  0.35109404  0.62131794  0.93072815     0.07090
N705        N  0.26627782  0.77173647  0.61918093    -0.27300
N706        N  0.23353325  0.76983626  0.62015848    -0.35160
C707        C  0.21437134  0.75433516  0.60903848     0.01040
C708        C  0.23607657  0.74601661  0.60066245     0.07060
C709        C  0.26875117  0.75739638  0.60730831    -0.06040
H710        H  0.18732203  0.74934743  0.60782756     0.07730
H711        H  0.29299620  0.75529749  0.60422374     0.08930
Cu712      Cu  0.21837096  0.78730774  0.63886942     0.44170
Cu713      Cu  0.30705730  0.79342932  0.63525106     0.41990
Cu714      Cu  0.26901220  0.82833798  0.65713435     0.43880
N715        N  0.21762050  0.80425361  0.66497869    -0.34690
N716        N  0.23484126  0.82003941  0.67101664    -0.28940
C717        C  0.23747638  0.82643684  0.69277550    -0.05040
C718        C  0.22181748  0.81383372  0.70096215     0.07170
C719        C  0.20939567  0.80000600  0.68287457     0.00970
H720        H  0.25467219  0.83823580  0.70401385     0.08620
H721        H  0.19909415  0.78717844  0.68430315     0.07700
N722        N  0.32404209  0.82958260  0.65977943    -0.36140
N723        N  0.33981067  0.81685469  0.65354556    -0.28320
C724        C  0.38049049  0.82107679  0.66367271    -0.03560
C725        C  0.39043852  0.83709469  0.67704455     0.05050
C726        C  0.35385430  0.84207772  0.67392551     0.03150
H727        H  0.40197880  0.81263982  0.66292092     0.08250
H728        H  0.35006432  0.85335164  0.68307734     0.07090
N729        N  0.19879708  0.77177381  0.81927680    -0.27300
N730        N  0.22610805  0.76869580  0.81363386    -0.35160
C731        C  0.24698545  0.75365911  0.82578244     0.01040
C732        C  0.23214742  0.74692219  0.83976809     0.07060
C733        C  0.20164597  0.75871695  0.83525649    -0.06040
H734        H  0.27096778  0.74802677  0.82433771     0.07730
H735        H  0.18272324  0.75784357  0.84285465     0.08930
Cu736      Cu  0.23343274  0.78463313  0.78919022     0.44170
Cu737      Cu  0.15875084  0.79352009  0.80465325     0.41990
Cu738      Cu  0.19058494  0.82712520  0.77706945     0.43880
N739        N  0.23230058  0.80208016  0.76272058    -0.34690
N740        N  0.21886836  0.81837052  0.75942760    -0.28940
C741        C  0.21606144  0.82563601  0.73807365    -0.05040
C742        C  0.22762639  0.81311656  0.72725465     0.07170
C743        C  0.23782305  0.79838947  0.74336693     0.00970
H744        H  0.20199567  0.83828264  0.72915487     0.08620
H745        H  0.24568406  0.78557445  0.74003483     0.07700
N746        N  0.13885247  0.82900209  0.77794190    -0.36140
N747        N  0.12540664  0.81673014  0.78652041    -0.28320
C748        C  0.08601981  0.82113494  0.77862881    -0.03560
C749        C  0.07437013  0.83677301  0.76418482     0.05050
C750        C  0.10868201  0.84136675  0.76436258     0.03150
H751        H  0.06635075  0.81303881  0.78161934     0.08250
H752        H  0.11052328  0.85228276  0.75371638     0.07090
N753        N  0.90189824  0.55170560  0.92901613    -0.27300
N754        N  0.94172229  0.55563276  0.93883526    -0.35160
C755        C  0.96073610  0.54137237  0.93778463     0.01360
C756        C  0.93164693  0.52765986  0.92711246     0.07060
C757        C  0.89440917  0.53475461  0.92142975    -0.06040
H758        H  0.99394164  0.54081996  0.94544919     0.07730
H759        H  0.86439020  0.52805582  0.91296708     0.08930
Cu760      Cu  0.96932033  0.57960944  0.95617622     0.44170
Cu761      Cu  0.86259280  0.56942456  0.92995554     0.41990
Cu762      Cu  0.91137577  0.61145063  0.96620338     0.43880
N763        N  0.99500484  0.60302546  0.97683732    -0.34690
N764        N  0.97460303  0.61485821  0.98082813    -0.28940
C765        C  0.00185298  0.62817946  0.99588327    -0.05040
C766        C  0.04110075  0.62436635  0.00153532     0.07170
C767        C  0.03545043  0.60837689  0.98912189     0.00970
H768        H  0.99372806  0.63968292  0.00224482     0.08620
H769        H  0.05903361  0.60103472  0.98905398     0.07700
N770        N  0.85090409  0.60274250  0.95213664    -0.36140
N771        N  0.83337013  0.58774969  0.93892438    -0.28320
C772        C  0.79649168  0.58528305  0.93569898    -0.03560
C773        C  0.79051905  0.59935371  0.94732314     0.05050
C774        C  0.82559199  0.61014322  0.95767017     0.03150
H775        H  0.77711360  0.57351974  0.92734513     0.08250
H776        H  0.83362239  0.62186974  0.96996614     0.07090
N777        N  0.56144302  0.55047117  0.99544855    -0.27300
N778        N  0.52519452  0.55556667  0.99060397    -0.35160
C779        C  0.50753526  0.54206389  0.99467569     0.01040
C780        C  0.53417551  0.52772892  0.50280063     0.07060
C781        C  0.56801869  0.53350425  0.50292761    -0.06040
H782        H  0.47678829  0.54248693  0.99103048     0.07730
H783        H  0.59413873  0.52572794  0.50663448     0.08930
Cu784      Cu  0.49940208  0.58004497  0.97570691     0.44170
Cu785      Cu  0.59641066  0.56681688  0.98827959     0.41990
Cu786      Cu  0.55203025  0.61089903  0.95992941     0.43880
N787        N  0.47372479  0.60380721  0.95669306    -0.34690
N788        N  0.49228659  0.61529801  0.95065518    -0.28940
C789        C  0.46532489  0.62887242  0.93705472    -0.05040
C790        C  0.42817445  0.62558135  0.93449093     0.07170
C791        C  0.43475265  0.60964207  0.94721301     0.00970
H792        H  0.47206319  0.64011894  0.92936295     0.08620
H793        H  0.41265301  0.60260090  0.94918153     0.07700
N794        N  0.60733178  0.60095143  0.96718013    -0.36140
N795        N  0.62271441  0.58509219  0.97689163    -0.28320
C796        C  0.65671201  0.58247476  0.97688468    -0.03560
C797        C  0.66292542  0.59727490  0.96646759     0.05050
C798        C  0.63133568  0.60881957  0.96090841     0.03150
H799        H  0.67480113  0.57041763  0.98319635     0.08250
H800        H  0.62581144  0.62194247  0.95273813     0.07090
N801        N  0.95999216  0.36250000  0.91069027    -0.27300
N802        N  0.93428242  0.37523129  0.90725404    -0.35160
C803        C  0.89934134  0.36827102  0.90326904     0.01040
C804        C  0.90274013  0.35029995  0.90381607     0.07060
C805        C  0.94144284  0.34701903  0.90839299    -0.06040
H806        H  0.87376478  0.37578766  0.90077400     0.07730
H807        H  0.95613914  0.33438832  0.91142481     0.08930
Cu808      Cu  0.94749814  0.40163535  0.90946988     0.44170
Cu809      Cu  0.02138395  0.36704145  0.92202265     0.41990
Cu810      Cu  0.05039726  0.41367045  0.92994929     0.43880
N811        N  0.96666584  0.42742066  0.91396057    -0.34690
N812        N  0.00517475  0.43199840  0.92185291    -0.28940
C813        C  0.00896916  0.44951974  0.92434866    -0.05040
C814        C  0.97062970  0.45631852  0.91732013     0.07170
C815        C  0.94476000  0.44185297  0.91108294     0.00970
H816        H  0.03810918  0.45664377  0.93186136     0.08620
H817        H  0.91262102  0.44179094  0.90539040     0.07700
N818        N  0.09123760  0.39320113  0.93820546    -0.36140
N819        N  0.08165123  0.37635353  0.93598992    -0.28320
C820        C  0.11665276  0.36693739  0.94409756    -0.03560
C821        C  0.14935959  0.37849142  0.95150868     0.05050
C822        C  0.13210921  0.39494390  0.94738807     0.03150
H823        H  0.11803677  0.35280101  0.94433459     0.08250
H824        H  0.14825639  0.40732665  0.95104949     0.07090
N825        N  0.51749657  0.36423628  0.54093271    -0.27300
N826        N  0.54062011  0.37681572  0.54068992    -0.35160
C827        C  0.57569940  0.36985592  0.54502039     0.01040
C828        C  0.57514041  0.35204963  0.54838286     0.07060
C829        C  0.53791830  0.34886288  0.54584935    -0.06040
H830        H  0.59928807  0.37722154  0.54490045     0.07730
H831        H  0.52540445  0.33624675  0.54596252     0.08930
Cu832      Cu  0.52390527  0.40290154  0.53251259     0.44170
Cu833      Cu  0.45662087  0.36857281  0.53071348     0.41990
Cu834      Cu  0.42199770  0.41455378  0.51223094     0.43880
N835        N  0.50194863  0.42832782  0.52255319    -0.34690
N836        N  0.46368724  0.43279849  0.51507689    -0.28940
C837        C  0.45792179  0.45003966  0.50956445    -0.05040
C838        C  0.49431821  0.45670233  0.51347377     0.07170
C839        C  0.52171170  0.44254948  0.52200863     0.00970
H840        H  0.42959152  0.45716812  0.50355575     0.08620
H841        H  0.55350712  0.44254906  0.52715567     0.07700
N842        N  0.38325259  0.39411310  0.50750572    -0.36140
N843        N  0.39502903  0.37757273  0.51437593    -0.28320
C844        C  0.36033427  0.36806038  0.50692859    -0.03560
C845        C  0.32533052  0.37918598  0.99445217     0.05050
C846        C  0.34113751  0.39553122  0.99540152     0.03150
H847        H  0.36024302  0.35404613  0.50938591     0.08250
H848        H  0.32307684  0.40758475  0.98732117     0.07090
C849        C  0.20445037  0.37961099  0.94376216    -0.09170
C850        C  0.19326065  0.37474948  0.96099429     0.07030
C851        C  0.22544409  0.36890025  0.98821730    -0.02940
C852        C  0.26862502  0.36903970  0.49835760    -0.07390
C853        C  0.28000222  0.37508301  0.98164736     0.06140
C854        C  0.24738973  0.37970651  0.95379848    -0.02410
Br855      Br  0.25997931  0.38665544  0.92884447    -0.02110
H856        H  0.17981158  0.38402442  0.92273671     0.10050
H857        H  0.29349934  0.36556523  0.51984980     0.08070
Br858      Br  0.21239961  0.36252614  0.51311037    -0.02530
C859        C  0.48287807  0.50299086  0.98652791    -0.09170
C860        C  0.52453459  0.50962763  0.50614114     0.07030
C861        C  0.55580430  0.49882866  0.52821926    -0.02940
C862        C  0.54514179  0.48170196  0.53017140    -0.07390
C863        C  0.50351483  0.47500456  0.51048689     0.06140
C864        C  0.47224427  0.48583156  0.98832317    -0.02410
Br865      Br  0.41575813  0.47768356  0.95844316    -0.02110
H866        H  0.45869262  0.51105846  0.96919430     0.10050
H867        H  0.56944355  0.47364487  0.54746455     0.08070
Br868      Br  0.61263481  0.50705839  0.55728774    -0.02530
C869        C  0.96338985  0.50606994  0.91357127    -0.09170
C870        C  0.94025540  0.50931098  0.92406826     0.07030
C871        C  0.92745415  0.49502293  0.93233564    -0.02940
C872        C  0.93743108  0.47797489  0.92966989    -0.07390
C873        C  0.96058726  0.47470058  0.91919280     0.06140
C874        C  0.97338765  0.48899492  0.91090575    -0.02410
Br875      Br  0.00182934  0.48617696  0.89403382    -0.02110
H876        H  0.97324545  0.51690623  0.90700528     0.10050
H877        H  0.92795870  0.46720208  0.93657448     0.08070
Br878      Br  0.89982106  0.49779268  0.94975187    -0.02530
C879        C  0.73682435  0.59220645  0.98159108    -0.09170
C880        C  0.69604163  0.59954372  0.96200433     0.07030
C881        C  0.68746301  0.60766548  0.93804062    -0.02940
C882        C  0.71924240  0.60799422  0.93402762    -0.07390
C883        C  0.75938725  0.60028458  0.95337246     0.06140
C884        C  0.76829022  0.59248517  0.97741215    -0.02410
Br885      Br  0.82237124  0.58142019  0.00457152    -0.02110
H886        H  0.74419421  0.58578952  0.50001568     0.10050
H887        H  0.71213638  0.61379040  0.91529386     0.08070
Br888      Br  0.63221634  0.61692982  0.90856055    -0.02530
C889        C  0.20992276  0.08109726  0.73005487    -0.09170
C890        C  0.18461112  0.08712777  0.70254040     0.07030
C891        C  0.20478284  0.09402251  0.69145427    -0.02940
C892        C  0.24983420  0.09404372  0.70757356    -0.07390
C893        C  0.27502808  0.08705660  0.73458065     0.06140
C894        C  0.25476221  0.08106099  0.74609548    -0.02410
Br895      Br  0.28691800  0.07261181  0.78359684    -0.02110
H896        H  0.19464456  0.07588405  0.73881407     0.10050
H897        H  0.26507525  0.09856672  0.69843610     0.08070
Br898      Br  0.17207998  0.10193848  0.65368754    -0.02530
C899        C  0.50882977  0.97707594  0.79916718    -0.09170
C900        C  0.52139441  0.99071792  0.78989509     0.07030
C901        C  0.54437833  0.98660292  0.77938428    -0.02940
C902        C  0.55474152  0.96921636  0.77872693    -0.07390
C903        C  0.54204696  0.95555831  0.78786568     0.06140
C904        C  0.51903637  0.95964503  0.79835859    -0.02410
Br905      Br  0.50280881  0.94225185  0.81340862    -0.02110
H906        H  0.49150026  0.98001431  0.80750172     0.10050
H907        H  0.57149210  0.96631092  0.76998855     0.08070
Br908      Br  0.55901782  0.00367494  0.76298819    -0.02530
C909        C  0.96829990  0.96118483  0.67938784    -0.09170
C910        C  0.92529825  0.95554280  0.66140613     0.07030
C911        C  0.89402872  0.96708233  0.64075758    -0.02940
C912        C  0.90597529  0.98396714  0.63881384    -0.07390
C913        C  0.94890145  0.98967905  0.65700111     0.06140
C914        C  0.98027124  0.97806422  0.67752417    -0.02410
Br915      Br  0.03908913  0.98478574  0.70535618    -0.02110
H916        H  0.99267355  0.95258713  0.69564574     0.10050
H917        H  0.88154514  0.99266204  0.62278871     0.08070
Br918      Br  0.83514531  0.96025194  0.61360290    -0.02530
C919        C  0.69445126  0.86887064  0.70962253    -0.09170
C920        C  0.71045500  0.87110361  0.73746568     0.07030
C921        C  0.75514506  0.87309949  0.75811626    -0.02940
C922        C  0.78274575  0.87326861  0.75059487    -0.07390
C923        C  0.76644980  0.87176598  0.72264125     0.06140
C924        C  0.72200925  0.86934036  0.70209117    -0.02410
Br925      Br  0.69774911  0.86612156  0.66365658    -0.02110
H926        H  0.66023163  0.86718910  0.69354650     0.10050
H927        H  0.81701239  0.87492448  0.76657735     0.08070
Br928      Br  0.78036479  0.87493108  0.79691163    -0.02530
loop_ 
_geom_bond_atom_site_label_1 
_geom_bond_atom_site_label_2 
_geom_bond_distance 
_geom_bond_site_symmetry_2 
_ccdc_geom_bond_type 
N1            N2   1.322       .  A
N1            C5   1.348       .  A
N1           Cu9   2.085       .  S
N2            C3   1.342       .  A
N2           Cu8   2.060       .  S
C3            C4   1.380       .  A
C3            H6   1.082       .  S
C4            C5   1.387       .  A
C4           C76   1.472       .  S
C5            H7   1.082       .  S
Cu8          N11   2.059       .  S
Cu9          N19   2.085       .  S
Cu10         N12   2.082       .  S
Cu10         N18   2.084       .  S
N11          N12   1.320       .  A
N11          C15   1.340       .  A
N12          C13   1.351   1_554  A
C13         C478   1.387       .  A
C13         H480   1.082       .  S
C14         C477   1.387       .  A
C14         C479   1.379       .  A
C14          C38   1.470       .  S
C15         C478   1.379   1_554  A
C15          H17   1.082       .  S
H16         C477   1.082       .  S
N18          N19   1.325       .  A
N18          C22   1.343       .  A
N19          C20   1.349       .  A
C20          C21   1.383       .  A
C20          H23   1.082       .  S
C21          C22   1.381       .  A
C21         C364   1.471       .  S
C22          H24   1.082       .  S
N25          N26   1.321       .  A
N25          C29   1.347       .  A
N25         Cu33   2.080       .  S
N26          C27   1.344       .  A
N26         Cu32   2.067       .  S
C27          C28   1.382       .  A
C27          H30   1.082       .  S
C28          C29   1.386       .  A
C28          C52   1.473       .  S
C29          H31   1.082       .  S
Cu32         N35   2.067       .  S
Cu33         N43   2.081       .  S
Cu34         N36   2.082       .  S
Cu34         N42   2.083       .  S
N35          N36   1.322       .  A
N35          C39   1.341       .  A
N36          C37   1.351       .  A
C37          C38   1.386       .  A
C37          H40   1.082       .  S
C38          C39   1.380       .  A
C39          H41   1.082       .  S
N42          N43   1.325       .  A
N42          C46   1.344       .  A
N43          C44   1.348       .  A
C44          C45   1.382       .  A
C44          H47   1.082       .  S
C45          C46   1.381       .  A
C45         C340   1.469       .  S
C46          H48   1.082       .  S
N49          N50   1.321       .  A
N49          C53   1.346       .  A
N49         Cu57   2.078       .  S
N50          C51   1.345       .  A
N50         Cu56   2.069       .  S
C51          C52   1.383       .  A
C51          H54   1.082       .  S
C52          C53   1.385       .  A
C53          H55   1.082       .  S
Cu56         N59   2.069       .  S
Cu57         N67   2.078       .  S
Cu58         N60   2.087       .  S
Cu58         N66   2.088       .  S
N59          N60   1.322       .  A
N59          C63   1.341       .  A
N60          C61   1.352       .  A
C61          C62   1.387       .  A
C61          H64   1.082       .  S
C62          C63   1.380       .  A
C62          C86   1.472       .  S
C63          H65   1.082       .  S
N66          N67   1.325       .  A
N66          C70   1.344       .  A
N67          C68   1.348       .  A
C68          C69   1.381       .  A
C68          H71   1.082       .  S
C69          C70   1.382       .  A
C69         C148   1.469       .  S
C70          H72   1.082       .  S
N73          N74   1.321       .  A
N73          C77   1.345       .  A
N73         Cu81   2.080       .  S
N74          C75   1.345       .  A
N74         Cu80   2.063       .  S
C75          C76   1.381       .  A
C75          H78   1.082       .  S
C76          C77   1.386       .  A
C77          H79   1.082       .  S
Cu80         N83   2.063       .  S
Cu81         N91   2.080       .  S
Cu82         N84   2.091       .  S
Cu82         N90   2.092       .  S
N83          N84   1.322       .  A
N83          C87   1.340       .  A
N84          C85   1.352       .  A
C85          C86   1.388       .  A
C85          H88   1.082       .  S
C86          C87   1.379       .  A
C87          H89   1.082       .  S
N90          N91   1.325       .  A
N90          C94   1.345       .  A
N91          C92   1.348       .  A
C92          C93   1.382       .  A
C92          H95   1.082       .  S
C93          C94   1.384       .  A
C93         C182   1.473       .  S
C94          H96   1.082       .  S
N97          N98   1.320       .  A
N97         C101   1.348       .  A
N97        Cu105   2.086       .  S
N98          C99   1.342       .  A
N98        Cu104   2.056       .  S
C99         C100   1.382       .  A
C99         H102   1.082       .  S
C100        C101   1.390       .  A
C100        C446   1.482       .  S
C101        H103   1.082       .  S
Cu104       N107   2.056       .  S
Cu105       N115   2.088       .  S
Cu106       N108   2.071       .  S
Cu106       N114   2.073       .  S
N107        N108   1.321       .  A
N107        C111   1.338   1_655  A
N108        C109   1.349       .  A
C109        C110   1.385   1_655  A
C109        H112   1.082       .  S
C110        C111   1.380       .  A
C110        C285   1.468       .  S
C111        H113   1.082       .  S
N114        N115   1.325       .  A
N114        C118   1.345       .  A
N115        C116   1.346       .  A
C116        C117   1.383       .  A
C116        H119   1.082       .  S
C117        C118   1.380       .  A
C117        C459   1.472       .  S
C118        H120   1.082       .  S
N121        N122   1.319       .  A
N121        C125   1.346       .  A
N121       Cu129   2.083       .  S
N122        C123   1.343       .  A
N122       Cu128   2.057       .  S
C123        C124   1.384       .  A
C123        H126   1.081       .  S
C124        C125   1.390       .  A
C124        C439   1.483       .  S
C125        H127   1.082       .  S
Cu128       N131   2.058       .  S
Cu129       N139   2.085       .  S
Cu130       N132   2.072       .  S
Cu130       N138   2.074       .  S
N131        N132   1.321       .  A
N131        C135   1.338       .  A
N132        C133   1.349       .  A
C133        C134   1.385       .  A
C133        H136   1.082       .  S
C134        C135   1.380       .  A
C134        C261   1.469       .  S
C135        H137   1.082       .  S
N138        N139   1.324       .  A
N138        C142   1.345       .  A
N139        C140   1.345       .  A
C140        C141   1.384       .  A
C140        H143   1.082       .  S
C141        C142   1.382       .  A
C141        C456   1.478       .  S
C142        H144   1.082       .  S
N145        N146   1.323       .  A
N145        C149   1.350       .  A
N145       Cu153   2.089       .  S
N146        C147   1.342       .  A
N146       Cu152   2.062       .  S
C147        C148   1.378       .  A
C147        H150   1.082       .  S
C148        C149   1.386       .  A
C149        H151   1.082       .  S
Cu152       N155   2.061       .  S
Cu153       N163   2.089       .  S
Cu154       N156   2.077       .  S
Cu154       N162   2.077       .  S
N155        N156   1.319       .  A
N155        C159   1.342       .  A
N156        C157   1.347       .  A
C157        C158   1.388       .  A
C157        H160   1.082       .  S
C158        C159   1.384       .  A
C158        C436   1.482   1_545  S
C159        H161   1.081       .  S
N162        N163   1.325       .  A
N162        C166   1.343       .  A
N163        C164   1.349       .  A
C164        C165   1.385       .  A
C164        H167   1.082       .  S
C165        C166   1.380       .  A
C165        C429   1.475       .  S
C166        H168   1.082       .  S
N169        N170   1.319       .  A
N169        C173   1.346       .  A
N169       Cu177   2.072   1_655  S
N170        C171   1.343       .  A
N170       Cu176   2.063       .  S
C171        C172   1.384       .  A
C171        H174   1.082       .  S
C172        C173   1.388       .  A
C172        C449   1.482   1_545  S
C173        H175   1.081   1_655  S
Cu176       N179   2.063       .  S
Cu177       N187   2.073       .  S
Cu178       N180   2.094   1_455  S
Cu178       N186   2.094       .  S
N179        N180   1.323       .  A
N179        C183   1.342       .  A
N180        C181   1.351       .  A
C181        C182   1.388       .  A
C181        H184   1.082       .  S
C182        C183   1.378       .  A
C183        H185   1.082       .  S
N186        N187   1.325       .  A
N186        C190   1.350       .  A
N187        C188   1.342       .  A
C188        C189   1.379       .  A
C188        H191   1.082       .  S
C189        C190   1.385       .  A
C189        C426   1.473       .  S
C190        H192   1.082       .  S
N193        N194   1.322       .  A
N193        C197   1.347       .  A
N193       Cu201   2.087       .  S
N194        C195   1.341       .  A
N194       Cu200   2.052       .  S
C195        C196   1.377       .  A
C195        H198   1.082       .  S
C196        C197   1.387       .  A
C196        C244   1.468       .  S
C197        H199   1.082       .  S
Cu200       N203   2.051       .  S
Cu201       N211   2.087       .  S
Cu202       N204   2.058       .  S
Cu202       N210   2.058       .  S
N203        N204   1.319       .  A
N203        C207   1.339       .  A
N204        C669   1.346   1_554  A
C205        N668   1.346       .  A
C205        C206   1.382       .  A
C205        H208   1.082       .  S
C206        C671   1.379       .  A
C206        C230   1.463       .  S
C207        C670   1.379   1_554  A
C207        H209   1.082       .  S
N210        N211   1.324       .  A
N210        C214   1.337       .  A
N211        C212   1.350       .  A
C212        C213   1.386       .  A
C212        H215   1.082       .  S
C213        C214   1.377       .  A
C213        C766   1.469       .  S
C214        H216   1.082       .  S
N217        N218   1.322       .  A
N217        C221   1.346       .  A
N217       Cu225   2.082       .  S
N218        C219   1.343       .  A
N218       Cu224   2.060       .  S
C219        C220   1.379       .  A
C219        H222   1.082       .  S
C220        C221   1.385       .  A
C220        C268   1.469       .  S
C221        H223   1.082       .  S
Cu224       N227   2.059       .  S
Cu225       N235   2.082       .  S
Cu226       N228   2.057       .  S
Cu226       N234   2.058       .  S
N227        N228   1.320       .  A
N227        C231   1.340       .  A
N228        C229   1.346       .  A
C229        C230   1.381       .  A
C229        H232   1.082       .  S
C230        C231   1.380       .  A
C231        H233   1.082       .  S
N234        N235   1.323       .  A
N234        C238   1.338       .  A
N235        C236   1.349       .  A
C236        C237   1.385       .  A
C236        H239   1.082       .  S
C237        C238   1.378       .  A
C237        C326   1.468       .  S
C238        H240   1.082       .  S
N241        N242   1.322       .  A
N241        C245   1.345       .  A
N241       Cu249   2.084       .  S
N242        C243   1.343       .  A
N242       Cu248   2.055       .  S
C243        C244   1.378       .  A
C243        H246   1.082       .  S
C244        C245   1.386       .  A
C245        H247   1.082       .  S
Cu248       N251   2.055       .  S
Cu249       N259   2.084       .  S
Cu250       N252   2.057       .  S
Cu250       N258   2.058       .  S
N251        N252   1.319       .  A
N251        C255   1.340       .  A
N252        C253   1.346       .  A
C253        C254   1.382       .  A
C253        H256   1.082       .  S
C254        C255   1.379       .  A
C254        C278   1.463       .  S
C255        H257   1.082       .  S
N258        N259   1.323       .  A
N258        C262   1.337       .  A
N259        C260   1.350       .  A
C260        C261   1.386       .  A
C260        H263   1.082       .  S
C261        C262   1.378       .  A
C262        H264   1.082       .  S
N265        N266   1.323       .  A
N265        C269   1.345       .  A
N265       Cu273   2.081       .  S
N266        C267   1.343       .  A
N266       Cu272   2.062       .  S
C267        C268   1.380       .  A
C267        H270   1.082       .  S
C268        C269   1.385       .  A
C269        H271   1.082       .  S
Cu272       N275   2.061       .  S
Cu273       N283   2.080       .  S
Cu274       N276   2.056       .  S
Cu274       N282   2.057       .  S
N275        N276   1.320       .  A
N275        C279   1.340       .  A
N276        C277   1.346       .  A
C277        C278   1.381       .  A
C277        H280   1.082       .  S
C278        C279   1.380       .  A
C279        H281   1.082       .  S
N282        N283   1.323       .  A
N282        C286   1.338       .  A
N283        C284   1.349       .  A
C284        C285   1.385       .  A
C284        H287   1.082       .  S
C285        C286   1.378       .  A
C286        H288   1.082       .  S
N289        N290   1.320       .  A
N289        C293   1.346       .  A
N289       Cu297   2.075       .  S
N290        C291   1.343       .  A
N290       Cu296   2.060       .  S
C291        C292   1.383       .  A
C291        H294   1.082       .  S
C292        C293   1.388       .  A
C292        C406   1.480       .  S
C293        H295   1.081       .  S
Cu296       N299   2.060       .  S
Cu297       N307   2.077       .  S
Cu298       N300   2.073       .  S
Cu298       N306   2.074       .  S
N299        N300   1.322       .  A
N299        C303   1.338   1_655  A
N300        C301   1.349   1_655  A
C301        C302   1.385       .  A
C301        H304   1.082   1_455  S
C302        C303   1.380       .  A
C302        C677   1.469       .  S
C303        H305   1.082       .  S
N306        N307   1.325       .  A
N306        C310   1.346       .  A
N307        C308   1.344       .  A
C308        C309   1.380       .  A
C308        H311   1.082       .  S
C309        C310   1.380       .  A
C309        C419   1.467       .  S
C310        H312   1.082       .  S
N313        N314   1.320       .  A
N313        C781   1.347       .  A
N313       Cu321   2.078       .  S
N314        C315   1.343       .  A
N314       Cu320   2.058       .  S
C315        C780   1.382       .  A
C315        H318   1.082       .  S
C316        C317   1.388       .  A
C316        C779   1.382   1_554  A
C316        C396   1.479       .  S
C317        N777   1.347   1_554  A
C317        H319   1.082       .  S
Cu320       N323   2.059       .  S
Cu321       N331   2.080       .  S
Cu322       N324   2.072       .  S
Cu322       N330   2.073       .  S
N323        N324   1.321       .  A
N323        C327   1.338       .  A
N324        C325   1.349       .  A
C325        C326   1.385       .  A
C325        H328   1.082       .  S
C326        C327   1.379       .  A
C327        H329   1.082       .  S
N330        N331   1.323       .  A
N330        C334   1.345       .  A
N331        C332   1.343       .  A
C332        C333   1.385       .  A
C332        H335   1.082       .  S
C333        C334   1.385       .  A
C333        C416   1.482       .  S
C334        H336   1.081       .  S
N337        N338   1.323       .  A
N337        C341   1.349       .  A
N337       Cu345   2.084   1_655  S
N338        C339   1.342       .  A
N338       Cu344   2.066       .  S
C339        C340   1.379       .  A
C339        H342   1.082       .  S
C340        C341   1.385       .  A
C341        H343   1.082       .  S
Cu344       N347   2.066       .  S
Cu345       N355   2.084       .  S
Cu346       N348   2.070       .  S
Cu346       N354   2.071       .  S
N347        N348   1.319   1_655  A
N347        C351   1.343       .  A
N348        C349   1.346       .  A
C349        C350   1.388   1_455  A
C349        H352   1.081       .  S
C350        C351   1.385       .  A
C350        C409   1.482       .  S
C351        H353   1.082       .  S
N354        N355   1.324       .  A
N354        C358   1.341       .  A
N355        C356   1.349       .  A
C356        C357   1.383       .  A
C356        H359   1.082       .  S
C357        C358   1.378       .  A
C357        C386   1.470       .  S
C358        H360   1.082       .  S
N361        N362   1.323       .  A
N361        C365   1.350       .  A
N361       Cu369   2.090       .  S
N362        C363   1.341       .  A
N362       Cu368   2.065       .  S
C363        C364   1.378       .  A
C363        H366   1.082       .  S
C364        C365   1.387       .  A
C365        H367   1.082       .  S
Cu368       N371   2.064       .  S
Cu369       N379   2.089       .  S
Cu370       N372   2.067       .  S
Cu370       N378   2.068       .  S
N371        N372   1.318       .  A
N371        C375   1.343       .  A
N372        C373   1.345       .  A
C373        C374   1.387       .  A
C373        H376   1.081       .  S
C374        C375   1.385       .  A
C374        C399   1.481       .  S
C375        H377   1.082       .  S
N378        N379   1.324       .  A
N378        C846   1.340   1_554  A
N379        C380   1.350       .  A
C380        C845   1.385   1_554  A
C380        H383   1.082       .  S
C381        C382   1.378       .  A
C381        C844   1.385       .  A
C381        C389   1.473       .  S
C382        N842   1.340       .  A
C382        H384   1.082       .  S
C385        C386   1.400       .  A
C385        C390   1.396       .  A
C385        H392   1.084       .  S
C386        C387   1.408       .  A
C387        C852   1.403       .  A
C387       Br858   1.918       .  S
C388        C851   1.403       .  A
C388        C853   1.403       .  A
C388        H393   1.083   1_556  S
C389        C390   1.409       .  A
C389        C852   1.403       .  A
C390       Br391   1.920       .  S
Br394       C851   1.918   1_554  S
C395        C400   1.399       .  A
C395        C860   1.404       .  A
C395        H402   1.084       .  S
C396        C397   1.409       .  A
C396        C859   1.404   1_554  A
C397        C398   1.399       .  A
C397       Br404   1.918       .  S
C398        C399   1.405       .  A
C398        H403   1.083       .  S
C399        C864   1.412   1_554  A
C400        C863   1.412       .  A
C400       Br401   1.920       .  S
C405        C406   1.404       .  A
C405        C410   1.400       .  A
C405        H412   1.084       .  S
C406        C407   1.411       .  A
C407        C408   1.398       .  A
C407       Br414   1.920       .  S
C408        C409   1.405       .  A
C408        H413   1.083       .  S
C409        C410   1.412       .  A
C410       Br411   1.920   1_655  S
C415        C416   1.405       .  A
C415        C420   1.396       .  A
C415        H886   1.083       .  S
C416        C417   1.416       .  A
C417        C418   1.401       .  A
C417       Br424   1.919       .  S
C418        C419   1.399       .  A
C418        H423   1.084       .  S
C419        C420   1.405       .  A
C420       Br421   1.919       .  S
H422        C879   1.082   1_554  S
C425        C426   1.402       .  A
C425        C430   1.397       .  A
C425        H432   1.084       .  S
C426        C427   1.408       .  A
C427        C428   1.403       .  A
C427       Br434   1.917       .  S
C428        C429   1.405       .  A
C428        H433   1.084       .  S
C429        C430   1.408       .  A
C430       Br431   1.919       .  S
C435        C436   1.404       .  A
C435        C440   1.401       .  A
C435        H442   1.084       .  S
C436        C437   1.413       .  A
C437        C438   1.398       .  A
C437       Br444   1.921   1_565  S
C438        C439   1.403       .  A
C438        H443   1.083       .  S
C439        C440   1.413       .  A
C440       Br441   1.920       .  S
C445        C446   1.405       .  A
C445        C450   1.399       .  A
C445        H452   1.083       .  S
C446        C447   1.409       .  A
C447        C448   1.400       .  A
C447       Br454   1.918       .  S
C448        C449   1.405       .  A
C448        H453   1.083       .  S
C449        C450   1.411       .  A
C450       Br451   1.920   1_655  S
C455        C456   1.405       .  A
C455        C460   1.399       .  A
C455        H462   1.083       .  S
C456        C457   1.410       .  A
C457        C458   1.400       .  A
C457       Br464   1.920       .  S
C458        C459   1.403       .  A
C458        H463   1.084       .  S
C459        C460   1.406       .  A
C460       Br461   1.919       .  S
N465        N466   1.322       .  A
N465        C469   1.348       .  A
N465       Cu473   2.085       .  S
N466        C467   1.342       .  A
N466       Cu472   2.060       .  S
C467        C468   1.380       .  A
C467        H470   1.082       .  S
C468        C469   1.387       .  A
C468        C540   1.472       .  S
C469        H471   1.082       .  S
Cu472       N475   2.059       .  S
Cu473       N483   2.085       .  S
Cu474       N476   2.082       .  S
Cu474       N482   2.084       .  S
N475        N476   1.320       .  A
N475        C479   1.340       .  A
N476        C477   1.351       .  A
C478        C502   1.470       .  S
C479        H481   1.082       .  S
N482        N483   1.325       .  A
N482        C486   1.343       .  A
N483        C484   1.349       .  A
C484        C485   1.383       .  A
C484        H487   1.082       .  S
C485        C486   1.381       .  A
C485        C828   1.471       .  S
C486        H488   1.082       .  S
N489        N490   1.321       .  A
N489        C493   1.347       .  A
N489       Cu497   2.080       .  S
N490        C491   1.344       .  A
N490       Cu496   2.067       .  S
C491        C492   1.382       .  A
C491        H494   1.082       .  S
C492        C493   1.386       .  A
C492        C516   1.473       .  S
C493        H495   1.082       .  S
Cu496       N499   2.067       .  S
Cu497       N507   2.081       .  S
Cu498       N500   2.082       .  S
Cu498       N506   2.083       .  S
N499        N500   1.322       .  A
N499        C503   1.341       .  A
N500        C501   1.351       .  A
C501        C502   1.386       .  A
C501        H504   1.082       .  S
C502        C503   1.380       .  A
C503        H505   1.082       .  S
N506        N507   1.325       .  A
N506        C510   1.344       .  A
N507        C508   1.348       .  A
C508        C509   1.382       .  A
C508        H511   1.082       .  S
C509        C510   1.381       .  A
C509        C804   1.469       .  S
C510        H512   1.082       .  S
N513        N514   1.321       .  A
N513        C517   1.346       .  A
N513       Cu521   2.078       .  S
N514        C515   1.345       .  A
N514       Cu520   2.069       .  S
C515        C516   1.383       .  A
C515        H518   1.082       .  S
C516        C517   1.385       .  A
C517        H519   1.082       .  S
Cu520       N523   2.069       .  S
Cu521       N531   2.078       .  S
Cu522       N524   2.087       .  S
Cu522       N530   2.088       .  S
N523        N524   1.322       .  A
N523        C527   1.341       .  A
N524        C525   1.352       .  A
C525        C526   1.387       .  A
C525        H528   1.082       .  S
C526        C527   1.380       .  A
C526        C550   1.472       .  S
C527        H529   1.082       .  S
N530        N531   1.325       .  A
N530        C534   1.344       .  A
N531        C532   1.348       .  A
C532        C533   1.381       .  A
C532        H535   1.082       .  S
C533        C534   1.382       .  A
C533        C612   1.469       .  S
C534        H536   1.082       .  S
N537        N538   1.321       .  A
N537        C541   1.345       .  A
N537       Cu545   2.080       .  S
N538        C539   1.345       .  A
N538       Cu544   2.063       .  S
C539        C540   1.381       .  A
C539        H542   1.082       .  S
C540        C541   1.386       .  A
C541        H543   1.082       .  S
Cu544       N547   2.063       .  S
Cu545       N555   2.080       .  S
Cu546       N548   2.091       .  S
Cu546       N554   2.092       .  S
N547        N548   1.322       .  A
N547        C551   1.340       .  A
N548        C549   1.352       .  A
C549        C550   1.388       .  A
C549        H552   1.082       .  S
C550        C551   1.379       .  A
C551        H553   1.082       .  S
N554        N555   1.325       .  A
N554        C558   1.345       .  A
N555        C556   1.348       .  A
C556        C557   1.382       .  A
C556        H559   1.082       .  S
C557        C558   1.384       .  A
C557        C646   1.473       .  S
C558        H560   1.082       .  S
N561        N562   1.320       .  A
N561        C565   1.348       .  A
N561       Cu569   2.086       .  S
N562        C563   1.342       .  A
N562       Cu568   2.056       .  S
C563        C564   1.382       .  A
C563        H566   1.082       .  S
C564        C565   1.390       .  A
C564        C910   1.482       .  S
C565        H567   1.082       .  S
Cu568       N571   2.056       .  S
Cu569       N579   2.088       .  S
Cu570       N572   2.071       .  S
Cu570       N578   2.073       .  S
N571        N572   1.321       .  A
N571        C575   1.338   1_655  A
N572        C573   1.349       .  A
C573        C574   1.385   1_655  A
C573        H576   1.082       .  S
C574        C575   1.380       .  A
C574        C749   1.468       .  S
C575        H577   1.082       .  S
N578        N579   1.325       .  A
N578        C582   1.345       .  A
N579        C580   1.346       .  A
C580        C581   1.383       .  A
C580        H583   1.082       .  S
C581        C582   1.380       .  A
C581        C923   1.472       .  S
C582        H584   1.082       .  S
N585        N586   1.319       .  A
N585        C589   1.346       .  A
N585       Cu593   2.083       .  S
N586        C587   1.343       .  A
N586       Cu592   2.057       .  S
C587        C588   1.384       .  A
C587        H590   1.081       .  S
C588        C589   1.390       .  A
C588        C903   1.483       .  S
C589        H591   1.082       .  S
Cu592       N595   2.058       .  S
Cu593       N603   2.085       .  S
Cu594       N596   2.072       .  S
Cu594       N602   2.074       .  S
N595        N596   1.321       .  A
N595        C599   1.338       .  A
N596        C597   1.349       .  A
C597        C598   1.385       .  A
C597        H600   1.082       .  S
C598        C599   1.380       .  A
C598        C725   1.469       .  S
C599        H601   1.082       .  S
N602        N603   1.324       .  A
N602        C606   1.345       .  A
N603        C604   1.345       .  A
C604        C605   1.384       .  A
C604        H607   1.082       .  S
C605        C606   1.382       .  A
C605        C920   1.478       .  S
C606        H608   1.082       .  S
N609        N610   1.323       .  A
N609        C613   1.350       .  A
N609       Cu617   2.089       .  S
N610        C611   1.342       .  A
N610       Cu616   2.062       .  S
C611        C612   1.378       .  A
C611        H614   1.082       .  S
C612        C613   1.386       .  A
C613        H615   1.082       .  S
Cu616       N619   2.061       .  S
Cu617       N627   2.089       .  S
Cu618       N620   2.077       .  S
Cu618       N626   2.077       .  S
N619        N620   1.319       .  A
N619        C623   1.342       .  A
N620        C621   1.347       .  A
C621        C622   1.388       .  A
C621        H624   1.082       .  S
C622        C623   1.384       .  A
C622        C900   1.482   1_545  S
C623        H625   1.081       .  S
N626        N627   1.325       .  A
N626        C630   1.343       .  A
N627        C628   1.349       .  A
C628        C629   1.385       .  A
C628        H631   1.082       .  S
C629        C630   1.380       .  A
C629        C893   1.475       .  S
C630        H632   1.082       .  S
N633        N634   1.319       .  A
N633        C637   1.346       .  A
N633       Cu641   2.072   1_655  S
N634        C635   1.343       .  A
N634       Cu640   2.063       .  S
C635        C636   1.384       .  A
C635        H638   1.082       .  S
C636        C637   1.388       .  A
C636        C913   1.482   1_545  S
C637        H639   1.081   1_655  S
Cu640       N643   2.063       .  S
Cu641       N651   2.073       .  S
Cu642       N644   2.094   1_455  S
Cu642       N650   2.094       .  S
N643        N644   1.323       .  A
N643        C647   1.342       .  A
N644        C645   1.351       .  A
C645        C646   1.388       .  A
C645        H648   1.082       .  S
C646        C647   1.378       .  A
C647        H649   1.082       .  S
N650        N651   1.325       .  A
N650        C654   1.350       .  A
N651        C652   1.342       .  A
C652        C653   1.379       .  A
C652        H655   1.082       .  S
C653        C654   1.385       .  A
C653        C890   1.473       .  S
C654        H656   1.082       .  S
N657        N658   1.322       .  A
N657        C661   1.347       .  A
N657       Cu665   2.087       .  S
N658        C659   1.341       .  A
N658       Cu664   2.052       .  S
C659        C660   1.377       .  A
C659        H662   1.082       .  S
C660        C661   1.387       .  A
C660        C708   1.468       .  S
C661        H663   1.082       .  S
Cu664       N667   2.051       .  S
Cu665       N675   2.087       .  S
Cu666       N668   2.058       .  S
Cu666       N674   2.058       .  S
N667        N668   1.319       .  A
N667        C671   1.339       .  A
C669        C670   1.382       .  A
C669        H672   1.082       .  S
C670        C694   1.463       .  S
C671        H673   1.082       .  S
N674        N675   1.324       .  A
N674        C678   1.337       .  A
N675        C676   1.350       .  A
C676        C677   1.386       .  A
C676        H679   1.082       .  S
C677        C678   1.377       .  A
C678        H680   1.082       .  S
N681        N682   1.322       .  A
N681        C685   1.346       .  A
N681       Cu689   2.082       .  S
N682        C683   1.343       .  A
N682       Cu688   2.060       .  S
C683        C684   1.379       .  A
C683        H686   1.082       .  S
C684        C685   1.385       .  A
C684        C732   1.469       .  S
C685        H687   1.082       .  S
Cu688       N691   2.059       .  S
Cu689       N699   2.082       .  S
Cu690       N692   2.057       .  S
Cu690       N698   2.058       .  S
N691        N692   1.320       .  A
N691        C695   1.340       .  A
N692        C693   1.346       .  A
C693        C694   1.381       .  A
C693        H696   1.082       .  S
C694        C695   1.380       .  A
C695        H697   1.082       .  S
N698        N699   1.323       .  A
N698        C702   1.338       .  A
N699        C700   1.349       .  A
C700        C701   1.385       .  A
C700        H703   1.082       .  S
C701        C702   1.378       .  A
C701        C790   1.468       .  S
C702        H704   1.082       .  S
N705        N706   1.322       .  A
N705        C709   1.345       .  A
N705       Cu713   2.084       .  S
N706        C707   1.343       .  A
N706       Cu712   2.055       .  S
C707        C708   1.378       .  A
C707        H710   1.082       .  S
C708        C709   1.386       .  A
C709        H711   1.082       .  S
Cu712       N715   2.055       .  S
Cu713       N723   2.084       .  S
Cu714       N716   2.057       .  S
Cu714       N722   2.058       .  S
N715        N716   1.319       .  A
N715        C719   1.340       .  A
N716        C717   1.346       .  A
C717        C718   1.382       .  A
C717        H720   1.082       .  S
C718        C719   1.379       .  A
C718        C742   1.463       .  S
C719        H721   1.082       .  S
N722        N723   1.323       .  A
N722        C726   1.337       .  A
N723        C724   1.350       .  A
C724        C725   1.386       .  A
C724        H727   1.082       .  S
C725        C726   1.378       .  A
C726        H728   1.082       .  S
N729        N730   1.323       .  A
N729        C733   1.345       .  A
N729       Cu737   2.081       .  S
N730        C731   1.343       .  A
N730       Cu736   2.062       .  S
C731        C732   1.380       .  A
C731        H734   1.082       .  S
C732        C733   1.385       .  A
C733        H735   1.082       .  S
Cu736       N739   2.061       .  S
Cu737       N747   2.080       .  S
Cu738       N740   2.056       .  S
Cu738       N746   2.057       .  S
N739        N740   1.320       .  A
N739        C743   1.340       .  A
N740        C741   1.346       .  A
C741        C742   1.381       .  A
C741        H744   1.082       .  S
C742        C743   1.380       .  A
C743        H745   1.082       .  S
N746        N747   1.323       .  A
N746        C750   1.338       .  A
N747        C748   1.349       .  A
C748        C749   1.385       .  A
C748        H751   1.082       .  S
C749        C750   1.378       .  A
C750        H752   1.082       .  S
N753        N754   1.320       .  A
N753        C757   1.346       .  A
N753       Cu761   2.076       .  S
N754        C755   1.343       .  A
N754       Cu760   2.060       .  S
C755        C756   1.383       .  A
C755        H758   1.082       .  S
C756        C757   1.388       .  A
C756        C870   1.480       .  S
C757        H759   1.081       .  S
Cu760       N763   2.060       .  S
Cu761       N771   2.077       .  S
Cu762       N764   2.074       .  S
Cu762       N770   2.075       .  S
N763        N764   1.322       .  A
N763        C767   1.338   1_655  A
N764        C765   1.349   1_655  A
C765        C766   1.385   1_556  A
C765        H768   1.082   1_456  S
C766        C767   1.380   1_554  A
C767        H769   1.082       .  S
N770        N771   1.325       .  A
N770        C774   1.346       .  A
N771        C772   1.344       .  A
C772        C773   1.380       .  A
C772        H775   1.082       .  S
C773        C774   1.380       .  A
C773        C883   1.467       .  S
C774        H776   1.082       .  S
N777        N778   1.320       .  A
N777       Cu785   2.078       .  S
N778        C779   1.343       .  A
N778       Cu784   2.058       .  S
C779        H782   1.082       .  S
C780        C781   1.388       .  A
C780        C860   1.479       .  S
C781        H783   1.082       .  S
Cu784       N787   2.059       .  S
Cu785       N795   2.080       .  S
Cu786       N788   2.071       .  S
Cu786       N794   2.072       .  S
N787        N788   1.321       .  A
N787        C791   1.338       .  A
N788        C789   1.348       .  A
C789        C790   1.385       .  A
C789        H792   1.082       .  S
C790        C791   1.380       .  A
C791        H793   1.082       .  S
N794        N795   1.323       .  A
N794        C798   1.345       .  A
N795        C796   1.343       .  A
C796        C797   1.385       .  A
C796        H799   1.082       .  S
C797        C798   1.384       .  A
C797        C880   1.481       .  S
C798        H800   1.081       .  S
N801        N802   1.323       .  A
N801        C805   1.349       .  A
N801       Cu809   2.084   1_655  S
N802        C803   1.342       .  A
N802       Cu808   2.066       .  S
C803        C804   1.379       .  A
C803        H806   1.082       .  S
C804        C805   1.385       .  A
C805        H807   1.082       .  S
Cu808       N811   2.066       .  S
Cu809       N819   2.084       .  S
Cu810       N812   2.070       .  S
Cu810       N818   2.071       .  S
N811        N812   1.319   1_655  A
N811        C815   1.343       .  A
N812        C813   1.346       .  A
C813        C814   1.388   1_455  A
C813        H816   1.081       .  S
C814        C815   1.385       .  A
C814        C873   1.482       .  S
C815        H817   1.082       .  S
N818        N819   1.324       .  A
N818        C822   1.341       .  A
N819        C820   1.349       .  A
C820        C821   1.383       .  A
C820        H823   1.082       .  S
C821        C822   1.378       .  A
C821        C850   1.470       .  S
C822        H824   1.082       .  S
N825        N826   1.323       .  A
N825        C829   1.350       .  A
N825       Cu833   2.090       .  S
N826        C827   1.341       .  A
N826       Cu832   2.065       .  S
C827        C828   1.378       .  A
C827        H830   1.082       .  S
C828        C829   1.387       .  A
C829        H831   1.082       .  S
Cu832       N835   2.064       .  S
Cu833       N843   2.089       .  S
Cu834       N836   2.067       .  S
Cu834       N842   2.068       .  S
N835        N836   1.318       .  A
N835        C839   1.343       .  A
N836        C837   1.345       .  A
C837        C838   1.387       .  A
C837        H840   1.081       .  S
C838        C839   1.385       .  A
C838        C863   1.481       .  S
C839        H841   1.082       .  S
N842        N843   1.324       .  A
N843        C844   1.350       .  A
C844        H847   1.082       .  S
C845        C846   1.378       .  A
C845        C853   1.473       .  S
C846        H848   1.082       .  S
C849        C850   1.400       .  A
C849        C854   1.396       .  A
C849        H856   1.084       .  S
C850        C851   1.408       .  A
C852        H857   1.083       .  S
C853        C854   1.409       .  A
C854       Br855   1.920       .  S
C859        C864   1.399       .  A
C859        H866   1.084       .  S
C860        C861   1.409       .  A
C861        C862   1.399       .  A
C861       Br868   1.918       .  S
C862        C863   1.405       .  A
C862        H867   1.083       .  S
C864       Br865   1.920       .  S
C869        C870   1.404       .  A
C869        C874   1.400       .  A
C869        H876   1.084       .  S
C870        C871   1.411       .  A
C871        C872   1.398       .  A
C871       Br878   1.920       .  S
C872        C873   1.405       .  A
C872        H877   1.083       .  S
C873        C874   1.412       .  A
C874       Br875   1.920   1_655  S
C879        C880   1.405       .  A
C879        C884   1.396       .  A
C880        C881   1.416       .  A
C881        C882   1.401       .  A
C881       Br888   1.919       .  S
C882        C883   1.399       .  A
C882        H887   1.083       .  S
C883        C884   1.405       .  A
C884       Br885   1.919   1_556  S
C889        C890   1.402       .  A
C889        C894   1.397       .  A
C889        H896   1.084       .  S
C890        C891   1.408       .  A
C891        C892   1.403       .  A
C891       Br898   1.917       .  S
C892        C893   1.405       .  A
C892        H897   1.084       .  S
C893        C894   1.408       .  A
C894       Br895   1.919       .  S
C899        C900   1.404       .  A
C899        C904   1.401       .  A
C899        H906   1.084       .  S
C900        C901   1.413       .  A
C901        C902   1.398       .  A
C901       Br908   1.921   1_565  S
C902        C903   1.403       .  A
C902        H907   1.083       .  S
C903        C904   1.413       .  A
C904       Br905   1.920       .  S
C909        C910   1.405       .  A
C909        C914   1.399       .  A
C909        H916   1.083       .  S
C910        C911   1.409       .  A
C911        C912   1.400       .  A
C911       Br918   1.918       .  S
C912        C913   1.405       .  A
C912        H917   1.083       .  S
C913        C914   1.411       .  A
C914       Br915   1.920   1_655  S
C919        C920   1.405       .  A
C919        C924   1.399       .  A
C919        H926   1.083       .  S
C920        C921   1.410       .  A
C921        C922   1.400       .  A
C921       Br928   1.920       .  S
C922        C923   1.403       .  A
C922        H927   1.084       .  S
C923        C924   1.406       .  A
C924       Br925   1.919       .  S
