geometry optimzed in LAMMPS
_audit_creation_date              2020-11-30 
_audit_creation_method            'lammps2cif' 
_symmetry_space_group_name_H-M    'P1' 
_symmetry_Int_Tables_number       1 
_symmetry_cell_setting            triclinic 
loop_ 
_symmetry_equiv_pos_as_xyz 
  x,y,z 
_cell_length_a                    32.338958251627005 
_cell_length_b                    31.24165313600973 
_cell_length_c                    32.0923228943816 
_cell_angle_alpha                 90.28615603902752 
_cell_angle_beta                  90.06012038925525 
_cell_angle_gamma                 89.87044287449176 
loop_ 
_atom_site_label 
_atom_site_type_symbol 
_atom_site_fract_x 
_atom_site_fract_y 
_atom_site_fract_z 
_atom_site_charge 
C1          C  0.24024900  0.26707595  0.49288161    -0.00140
C2          C  0.27200068  0.23854464  0.49295447    -0.00140
C3          C  0.27098039  0.48238803  0.25936023    -0.00140
C4          C  0.24070131  0.48584597  0.28953502    -0.00140
C5          C  0.48590745  0.26352561  0.24661978    -0.00140
C6          C  0.48676339  0.22730900  0.27039272    -0.00140
C7          C  0.22159130  0.18951542  0.99875195    -0.00140
C8          C  0.18868115  0.21765879  0.99872143    -0.00140
C9          C  0.98154112  0.21660350  0.20616892    -0.00140
C10         C  0.98742786  0.18605149  0.23581928    -0.00140
C11         C  0.21748621  0.97710787  0.20318334    -0.00140
C12         C  0.18619429  0.97966913  0.23187333    -0.00140
C13         C  0.70793749  0.22658385  0.49829731    -0.00140
C14         C  0.73916715  0.25604197  0.49582475    -0.00140
C15         C  0.26965176  0.71440330  0.50060233    -0.00140
C16         C  0.24116876  0.68192273  0.49738646    -0.00140
C17         C  0.48012594  0.69894734  0.24843878    -0.00140
C18         C  0.48338375  0.72539039  0.28230965    -0.00140
C19         C  0.71620336  0.48172826  0.29330795    -0.00140
C20         C  0.68073955  0.47794646  0.26949318    -0.00140
C21         C  0.48938727  0.27252965  0.74134865    -0.00140
C22         C  0.48938173  0.23654306  0.71648599    -0.00140
C23         C  0.26532088  0.46865071  0.75458416    -0.00140
C24         C  0.23067574  0.46849774  0.73044167    -0.00140
C25         C  0.18512315  0.74690226  0.00352241    -0.00140
C26         C  0.21578316  0.77758945  0.00339981    -0.00140
C27         C  0.76334858  0.22693343  0.00637477    -0.00140
C28         C  0.72998826  0.19908596  0.00624429    -0.00140
C29         C  0.98262394  0.19091917  0.75701983    -0.00140
C30         C  0.97967872  0.21339374  0.79418182    -0.00140
C31         C  0.22309289  0.98192985  0.79052486    -0.00140
C32         C  0.19414663  0.97923931  0.75954568    -0.00140
C33         C  0.98718031  0.74909480  0.20968144    -0.00140
C34         C  0.98613879  0.78007059  0.24072641    -0.00140
C35         C  0.75023064  0.97763616  0.20491862    -0.00140
C36         C  0.78482052  0.97706369  0.23055578    -0.00140
N37         N  0.31334333  0.53404649  0.95612060    -0.06820
N38         N  0.34307732  0.54578276  0.93080632    -0.58940
N39         N  0.28074720  0.56398244  0.04546396    -0.06500
N40         N  0.28594372  0.59436638  0.07345851    -0.61070
N41         N  0.31144676  0.53636329  0.04678626    -0.06100
N42         N  0.33850808  0.54759643  0.07544501    -0.58920
N43         N  0.28151139  0.55983454  0.95288728    -0.05780
N44         N  0.28796409  0.58867914  0.92402221    -0.61420
C45         C  0.32637055  0.57941294  0.91050229     0.95350
C46         C  0.32220804  0.58397466  0.09156297     0.95130
N47         N  0.15232469  0.53562051  0.04949554    -0.07010
N48         N  0.12563156  0.55193056  0.07750457    -0.59520
N49         N  0.18596558  0.55405999  0.94975041    -0.05130
N50         N  0.18213405  0.58253272  0.92039051    -0.60770
N51         N  0.15237016  0.53074880  0.95273259    -0.07040
N52         N  0.12393476  0.54547817  0.92620185    -0.59790
N53         N  0.18384663  0.56164315  0.04546072    -0.04770
N54         N  0.17956647  0.59453236  0.07005487    -0.60860
Mn55       Mn  0.23243997  0.55986391  0.99825298     1.18440
C56         C  0.14389106  0.58933262  0.09063862     0.97440
C57         C  0.14352764  0.57789183  0.90562182     0.98100
N58         N  0.31630431  0.43523747  0.05063102    -0.07060
N59         N  0.34380647  0.43073197  0.08076991    -0.63370
N60         N  0.28661432  0.40209508  0.95483362    -0.05860
N61         N  0.29329981  0.37385408  0.92455640    -0.64040
N62         N  0.31520200  0.43199723  0.95420189    -0.06560
N63         N  0.34162315  0.42481805  0.92337839    -0.63630
N64         N  0.28812281  0.40509286  0.05232511    -0.05460
N65         N  0.29597639  0.37926074  0.08409436    -0.64320
Mn66       Mn  0.31477181  0.48395588  0.00195961     1.10660
C67         C  0.33115165  0.39544793  0.10120552     0.98660
C68         C  0.32777971  0.38828943  0.90511722     0.98740
N69         N  0.15452287  0.42782389  0.95641194    -0.06570
N70         N  0.12683899  0.41329832  0.92873595    -0.61940
N71         N  0.19006815  0.40663921  0.05337633    -0.05890
N72         N  0.18657619  0.37702385  0.08169495    -0.58670
N73         N  0.15659096  0.43080412  0.05289595    -0.07200
N74         N  0.12914258  0.41566359  0.08017144    -0.61510
N75         N  0.18732665  0.40272942  0.95669508    -0.06190
N76         N  0.18264382  0.37228576  0.92901677    -0.58700
Mn77       Mn  0.15148360  0.48105712  0.00326411     1.20190
Mn78       Mn  0.23775829  0.40306821  0.00426434     1.10090
Cl79       Cl  0.23385505  0.48168400  0.00222287    -0.86670
C80         C  0.14531996  0.37830287  0.91106120     0.95670
C81         C  0.14881192  0.38195045  0.09868573     0.95460
N82         N  0.78536438  0.42979030  0.91748084    -0.06820
N83         N  0.81135759  0.41335918  0.88867310    -0.58940
N84         N  0.68550591  0.40504830  0.94843462    -0.06500
N85         N  0.65825837  0.37633747  0.93438330    -0.61070
N86         N  0.68921222  0.43582476  0.92097652    -0.06100
N87         N  0.66264378  0.43111983  0.89059712    -0.58920
N88         N  0.77846566  0.40153447  0.94680054    -0.05780
N89         N  0.79812598  0.36657381  0.93824868    -0.61420
C90         C  0.81996314  0.37315431  0.90329466     0.95350
C91         C  0.64374276  0.39377120  0.89813442     0.95130
N92         N  0.69632361  0.43649308  0.08094980    -0.07010
N93         N  0.67414360  0.42867324  0.11449706    -0.59520
N94         N  0.78540741  0.40240823  0.04492232    -0.05130
N95         N  0.80763924  0.36818573  0.05282573    -0.60770
N96         N  0.79096941  0.43119286  0.07455372    -0.07040
N97         N  0.81603527  0.41516824  0.10396682    -0.59790
N98         N  0.69024600  0.40635008  0.05282471    -0.04770
N99         N  0.66434525  0.37715213  0.06799753    -0.60860
Mn100      Mn  0.73387316  0.40333561  0.99832843     1.18440
C101        C  0.65438812  0.39179585  0.10688775     0.97440
C102        C  0.82730779  0.37563162  0.08925696     0.98100
N103        N  0.68908572  0.52881818  0.91871298    -0.07060
N104        N  0.66297502  0.53196431  0.88779049    -0.63370
N105        N  0.77715249  0.56587827  0.94505041    -0.05860
N106        N  0.79917097  0.59952013  0.93715828    -0.64040
N107        N  0.78466717  0.53570383  0.91741454    -0.06560
N108        N  0.81306134  0.54920299  0.89007052    -0.63630
N109        N  0.68426758  0.56037616  0.94540211    -0.05460
N110        N  0.65636561  0.58781171  0.93070496    -0.64320
Mn111      Mn  0.73892926  0.48255202  0.91799979     1.10660
C112        C  0.64296420  0.56892823  0.89467413     0.98660
C113        C  0.82237567  0.58953675  0.90380969     0.98740
N114        N  0.79004657  0.54005223  0.07086073    -0.06570
N115        N  0.81409940  0.55707095  0.10031972    -0.61940
N116        N  0.68826815  0.56452861  0.04890708    -0.05890
N117        N  0.66101675  0.59272158  0.06486673    -0.58670
N118        N  0.69955695  0.53733873  0.07786094    -0.07200
N119        N  0.68252906  0.54773732  0.11287730    -0.61510
N120        N  0.78233294  0.56896255  0.04190685    -0.06190
N121        N  0.80189137  0.60469404  0.05051396    -0.58700
Mn122      Mn  0.74558065  0.48608030  0.07626156     1.20190
Mn123      Mn  0.73163995  0.56562765  0.99513093     1.10090
Cl124      Cl  0.73819884  0.48435110  0.99731622    -0.86670
C125        C  0.82194862  0.59739866  0.08658459     0.95670
C126        C  0.65703332  0.58024425  0.10557102     0.95460
C127        C  0.84607799  0.33542813  0.88718012    -0.00140
C128        C  0.87917957  0.33384737  0.86016338    -0.00140
C129        C  0.87170367  0.63019663  0.13891782    -0.00140
C130        C  0.84010966  0.63416171  0.11074447    -0.00140
N131        N  0.93248673  0.55091388  0.79094009    -0.06820
N132        N  0.90371751  0.57989901  0.79507857    -0.58940
N133        N  0.03088877  0.53265551  0.82571330    -0.06500
N134        N  0.05836482  0.54727284  0.85349497    -0.61070
N135        N  0.02851394  0.55902977  0.79407177    -0.06100
N136        N  0.05411448  0.59092497  0.79927454    -0.58920
N137        N  0.93552964  0.52796389  0.82500926    -0.05780
N138        N  0.91070837  0.54451540  0.85415555    -0.61420
C139        C  0.89065857  0.57746323  0.83463914     0.95350
C140        C  0.07330350  0.58383330  0.83586758     0.95130
N141        N  0.03890326  0.40488185  0.79002167    -0.07010
N142        N  0.06791670  0.37596813  0.79552762    -0.59520
N143        N  0.94015177  0.42302942  0.82525413    -0.05130
N144        N  0.91381758  0.40792289  0.85376571    -0.60770
N145        N  0.94182152  0.39627614  0.79344316    -0.07040
N146        N  0.91677703  0.36360142  0.79947365    -0.59790
N147        N  0.03764904  0.43109795  0.82227234    -0.04770
N148        N  0.06501121  0.41873338  0.85091740    -0.60860
Mn149      Mn  0.98587800  0.47849591  0.82670334     1.18440
C150        C  0.08342795  0.38331171  0.83417249     0.97440
C151        C  0.89862200  0.37081505  0.83680138     0.98100
N152        N  0.02989444  0.56075317  0.69605500    -0.07060
N153        N  0.05997132  0.58880998  0.69174423    -0.63370
N154        N  0.94009741  0.53388066  0.66238779    -0.05860
N155        N  0.91361757  0.54566043  0.63322493    -0.64040
N156        N  0.93675651  0.55921585  0.69485087    -0.06560
N157        N  0.90694712  0.58742986  0.68949654    -0.63630
N158        N  0.03191610  0.53144131  0.66653907    -0.05460
N159        N  0.06382508  0.53835955  0.64200102    -0.64320
Mn160      Mn  0.98177130  0.55780040  0.74459485     1.10660
C161        C  0.08077351  0.57441869  0.65786844     0.98660
C162        C  0.89252142  0.57859810  0.65099988     0.98740
N163        N  0.93905946  0.40009278  0.69495758    -0.06570
N164        N  0.90792451  0.37308099  0.69113712    -0.61940
N165        N  0.03238371  0.43069778  0.66300655    -0.05890
N166        N  0.06169843  0.42394329  0.63515900    -0.58670
N167        N  0.03397114  0.40168862  0.69240565    -0.07200
N168        N  0.06437801  0.37443230  0.68521880    -0.61510
N169        N  0.93767785  0.42911745  0.66523192    -0.06190
N170        N  0.90565293  0.42185797  0.64041826    -0.58700
Mn171      Mn  0.98851918  0.39987918  0.74290833     1.20190
Mn172      Mn  0.98527181  0.48088297  0.66304092     1.10090
Cl173      Cl  0.98512715  0.47920394  0.74423178    -0.86670
C174        C  0.88688818  0.38735448  0.65751285     0.95670
C175        C  0.08104631  0.38849377  0.64922665     0.95460
C176        C  0.12406835  0.34093357  0.88909799    -0.00140
C177        C  0.09383404  0.34403431  0.85905528    -0.00140
C178        C  0.85118512  0.62338645  0.88693122    -0.00140
C179        C  0.87929622  0.61907580  0.85527429    -0.00140
C180        C  0.09598276  0.62029225  0.85671106    -0.00140
C181        C  0.12382338  0.61747758  0.88898111    -0.00140
C182        C  0.87040239  0.33701975  0.14720549    -0.00140
C183        C  0.84389648  0.33723685  0.11352444    -0.00140
N184        N  0.06041096  0.53045011  0.19387041    -0.06820
N185        N  0.09150236  0.54609515  0.17166302    -0.58940
N186        N  0.03492153  0.56931167  0.28747763    -0.06500
N187        N  0.05214217  0.60250342  0.30729371    -0.61070
N188        N  0.05975844  0.53625530  0.29061966    -0.06100
N189        N  0.09185901  0.54479783  0.31411174    -0.58920
N190        N  0.02778838  0.55486151  0.18903262    -0.05780
N191        N  0.03467967  0.58419972  0.16069510    -0.61420
C192        C  0.07536377  0.58110402  0.15234631     0.95350
C193        C  0.08771105  0.58621157  0.32417234     0.95130
N194        N  0.90519510  0.53694721  0.28747763    -0.07010
N195        N  0.87397222  0.54360948  0.31231423    -0.59520
N196        N  0.93679517  0.56022087  0.19120916    -0.05130
N197        N  0.93119038  0.59230751  0.16596093    -0.60770
N198        N  0.90425024  0.53540249  0.19211166    -0.07040
N199        N  0.87423767  0.55337253  0.16925536    -0.59790
N200        N  0.93069559  0.56963823  0.28734509    -0.04770
N201        N  0.91457872  0.60103382  0.31091556    -0.60860
Mn202      Mn  0.98287136  0.56459267  0.23984286     1.18440
C203        C  0.87906296  0.58346417  0.32684025     0.97440
C204        C  0.89220651  0.58909012  0.15242701     0.98100
N205        N  0.05919499  0.44125837  0.30013445    -0.07060
N206        N  0.09051622  0.43609841  0.32556055    -0.63370
N207        N  0.03365644  0.40024431  0.21102288    -0.05860
N208        N  0.04222901  0.36582600  0.18994299    -0.64040
N209        N  0.06210361  0.42924544  0.20436631    -0.06680
N210        N  0.09056452  0.41462509  0.17761788    -0.63630
N211        N  0.03251071  0.40988445  0.30415559    -0.05460
N212        N  0.04728711  0.38109759  0.33067421    -0.64320
Mn213      Mn  0.06096469  0.48448706  0.24661995     1.10660
C214        C  0.08364798  0.39824612  0.34428470     0.98660
C215        C  0.07682436  0.37457989  0.16826048     0.98740
N216        N  0.90712332  0.42933946  0.20002607    -0.06570
N217        N  0.87869524  0.41330765  0.17432040    -0.61940
N218        N  0.93078350  0.40983686  0.30120646    -0.05890
N219        N  0.91635316  0.38355067  0.33042058    -0.58670
N220        N  0.90440719  0.44129385  0.29535689    -0.07200
N221        N  0.87358424  0.43868798  0.32160069    -0.61510
N222        N  0.93707762  0.40125269  0.20559452    -0.06190
N223        N  0.93056312  0.36713647  0.18266336    -0.58700
Mn224      Mn  0.90447266  0.48549036  0.24268509     1.20190
Mn225      Mn  0.98329151  0.40416721  0.25630349     1.10090
Cl226      Cl  0.98265410  0.48445202  0.24665854    -0.86670
C227        C  0.89429469  0.37443299  0.16313376     0.95670
C228        C  0.88047971  0.40259262  0.34330146     0.95460
N229        N  0.40517560  0.18590815  0.95931934    -0.06820
N230        N  0.37367137  0.18067119  0.93410229    -0.58940
N231        N  0.43529447  0.14934552  0.05042113    -0.06500
N232        N  0.41731302  0.11744186  0.07128981    -0.61070
N233        N  0.41328078  0.18456533  0.05501148    -0.06100
N234        N  0.38229914  0.17754569  0.07995054    -0.58920
N235        N  0.43056496  0.15306981  0.95547039    -0.05780
N236        N  0.41585610  0.12489943  0.92771036    -0.61420
C237        C  0.38019178  0.14314611  0.91376516     0.95350
C238        C  0.38402466  0.13613614  0.09033238     0.95130
N239        N  0.56254036  0.17955384  0.04150123    -0.07010
N240        N  0.59460073  0.17200319  0.06517499    -0.59520
N241        N  0.52935603  0.15226164  0.94854506    -0.05130
N242        N  0.54351365  0.12400531  0.92082900    -0.60770
N243        N  0.55031746  0.18789694  0.94516779    -0.07040
N244        N  0.57549411  0.18620654  0.91356352    -0.59790
N245        N  0.53634445  0.14748816  0.04432378    -0.04770
N246        N  0.55126877  0.11748094  0.07011664    -0.60860
Mn247      Mn  0.48307560  0.14851445  0.99992923     1.18440
C248        C  0.58800888  0.13393367  0.08382091     0.97440
C249        C  0.57298211  0.14594898  0.89914223     0.98100
N250        N  0.41399733  0.28722960  0.05744276    -0.07060
N251        N  0.38716190  0.29599088  0.08738014    -0.63370
N252        N  0.43428251  0.31743359  0.96012332    -0.05860
N253        N  0.42739457  0.34161191  0.92714687    -0.64040
N254        N  0.40475732  0.28880325  0.96396790    -0.06560
N255        N  0.37641167  0.29400735  0.93482440    -0.63630
N256        N  0.44245507  0.31737513  0.05539458    -0.05460
N257        N  0.43536063  0.34705612  0.08424466    -0.64320
Mn258      Mn  0.40897456  0.23641732  0.00919981     1.10660
C259        C  0.40053498  0.33344225  0.10371115     0.98660
C260        C  0.39118130  0.32659246  0.91174844     0.98740
N261        N  0.55968045  0.28487235  0.94938363    -0.06570
N262        N  0.58674588  0.29138142  0.91939381    -0.61940
N263        N  0.54374296  0.31611359  0.04359106    -0.05890
N264        N  0.55827878  0.34531398  0.06970647    -0.58670
N265        N  0.56826978  0.28250002  0.04321672    -0.07200
N266        N  0.59873658  0.28739723  0.07021415    -0.61510
N267        N  0.53252035  0.31613577  0.95082361    -0.06190
N268        N  0.54056959  0.34476267  0.92163963    -0.58700
Mn269      Mn  0.56044680  0.23294011  0.99531269     1.20190
Mn270      Mn  0.48795556  0.31782523  0.00271932     1.10090
Cl271      Cl  0.48504704  0.23413866  0.00244305    -0.86670
C272        C  0.57495099  0.32905186  0.90274632     0.95670
C273        C  0.59225349  0.32668049  0.08697603     0.95460
N274        N  0.43623448  0.93220120  0.66335431    -0.06820
N275        N  0.42984583  0.90378060  0.63345283    -0.58940
N276        N  0.40444317  0.02780567  0.69732377    -0.06500
N277        N  0.37714981  0.05902621  0.69236795    -0.61070
N278        N  0.43309129  0.02989496  0.66830266    -0.06100
N279        N  0.42614380  0.06256243  0.64324891    -0.58920
N280        N  0.40782908  0.92919106  0.69246067    -0.05780
N281        N  0.38137283  0.89843520  0.68282240    -0.61420
C282        C  0.39522793  0.88332088  0.64563961     0.95350
C283        C  0.39097609  0.08021192  0.65833570     0.95130
N284        N  0.43001769  0.02497313  0.82903203    -0.07010
N285        N  0.41552948  0.05221470  0.85784961    -0.59520
N286        N  0.41014986  0.92317990  0.79177663    -0.05130
N287        N  0.38171625  0.89342927  0.79676776    -0.60770
N288        N  0.43329541  0.92602121  0.82550765    -0.07040
N289        N  0.41844413  0.90021744  0.85478698    -0.59790
N290        N  0.40574763  0.02520070  0.79607259    -0.04770
N291        N  0.37652966  0.05397922  0.80109648    -0.60860
Mn292      Mn  0.40608627  0.97607007  0.74485342     1.18440
C293        C  0.38182876  0.07066828  0.83951144     0.97440
C294        C  0.38569565  0.87977610  0.83669074     0.98100
N295        N  0.53071961  0.03280936  0.66787943    -0.07060
N296        N  0.54040834  0.06260159  0.64027001    -0.63370
N297        N  0.56234937  0.93629254  0.69527625    -0.05860
N298        N  0.59121989  0.90718136  0.68870717    -0.64040
N299        N  0.53393659  0.93455229  0.66602802    -0.06560
N300        N  0.54187938  0.90271636  0.63993562    -0.63630
N301        N  0.55797847  0.03212963  0.69814352    -0.05460
N302        N  0.58704537  0.06066391  0.69158925    -0.64320
Mn303      Mn  0.48331971  0.98236078  0.66551747     1.10660
C304        C  0.57598709  0.07940183  0.65558681     0.98660
C305        C  0.57791199  0.88608779  0.65430292     0.98740
N306        N  0.53368264  0.93047961  0.82702398    -0.06570
N307        N  0.54965781  0.90493562  0.85616792    -0.61940
N308        N  0.55153170  0.03171661  0.79500051    -0.05890
N309        N  0.57964046  0.06101563  0.79846441    -0.58670
N310        N  0.53093376  0.02831582  0.82997484    -0.07200
N311        N  0.54839548  0.05380143  0.85882110    -0.61510
N312        N  0.55860581  0.93213682  0.79462605    -0.06190
N313        N  0.59049367  0.90696798  0.80061873    -0.58700
Mn314      Mn  0.48178096  0.97737300  0.82995236     1.20190
Mn315      Mn  0.55773938  0.98287407  0.74632457     1.10090
Cl316      Cl  0.48215262  0.97939753  0.74657308    -0.86670
C317        C  0.58518109  0.88964945  0.83873539     0.95670
C318        C  0.57966592  0.07434001  0.83794326     0.95460
C319        C  0.34713234  0.84372305  0.89668085    -0.00140
C320        C  0.34642690  0.86838595  0.86070647    -0.00140
C321        C  0.61836665  0.09658833  0.85571162    -0.00140
C322        C  0.61328050  0.12746827  0.88552368    -0.00140
C323        C  0.62510153  0.84152947  0.89101123    -0.00140
C324        C  0.62273052  0.87319168  0.86124558    -0.00140
N325        N  0.43662424  0.80704385  0.94726785    -0.06820
N326        N  0.41934660  0.83860867  0.92583037    -0.58940
N327        N  0.40569083  0.77818214  0.04090120    -0.06500
N328        N  0.37384819  0.78508575  0.06532646    -0.61070
N329        N  0.43110359  0.81098004  0.04216583    -0.06100
N330        N  0.41551058  0.84154478  0.06693135    -0.58920
N331        N  0.41448996  0.77197776  0.94288666    -0.05780
N332        N  0.38502771  0.77803079  0.91522191    -0.61420
C333        C  0.38670814  0.82011187  0.90602461     0.95350
C334        C  0.37972657  0.82432362  0.08196298     0.95130
N335        N  0.43249644  0.64702076  0.04831328    -0.07010
N336        N  0.42382301  0.62229281  0.08062458    -0.59520
N337        N  0.40855093  0.67293209  0.95078146    -0.05130
N338        N  0.38111445  0.66643542  0.92129713    -0.60770
N339        N  0.43639858  0.64237659  0.95104765    -0.07040
N340        N  0.42895982  0.61474068  0.92033210    -0.59790
N341        N  0.40478175  0.67783145  0.04530533    -0.04770
N342        N  0.37664150  0.67450237  0.07494977    -0.60860
Mn343      Mn  0.40800442  0.72552777  0.99490930     1.18440
C344        C  0.38869440  0.63969892  0.09673373     0.97440
C345        C  0.39432538  0.63065665  0.90188893     0.98100
N346        N  0.53152337  0.80920027  0.04731187    -0.07060
N347        N  0.54877630  0.84170076  0.06746076    -0.63370
N348        N  0.56359638  0.77590632  0.95588358    -0.05860
N349        N  0.59590219  0.78174854  0.93180016    -0.64040
N350        N  0.53755517  0.80807583  0.95215848    -0.06560
N351        N  0.55287085  0.83685429  0.92560427    -0.63630
N352        N  0.55289252  0.77400758  0.05418027    -0.05460
N353        N  0.58152907  0.78108016  0.08256571    -0.64320
Mn354      Mn  0.48423847  0.81055684  0.99709729     1.10660
C355        C  0.58047421  0.82376034  0.08908334     0.98660
C356        C  0.58939844  0.81935016  0.91238376     0.98740
N357        N  0.53488978  0.64394282  0.95530674    -0.06570
N358        N  0.54247031  0.61692764  0.92453079    -0.61940
N359        N  0.56036463  0.67449160  0.04923579    -0.05890
N360        N  0.58994381  0.66663890  0.07632788    -0.58670
N361        N  0.53211626  0.64444176  0.04997975    -0.07200
N362        N  0.54159424  0.61577917  0.07861413    -0.61510
N363        N  0.56271109  0.67467953  0.95574595    -0.06190
N364        N  0.58965883  0.66911065  0.92526418    -0.58700
Mn365      Mn  0.48380764  0.64293895  0.00134213     1.20190
Mn366      Mn  0.56038139  0.72530353  0.00382720     1.10090
Cl367      Cl  0.48413940  0.72592247  0.99925712    -0.86670
C368        C  0.57707502  0.63251471  0.90645166     0.95670
C369        C  0.57818779  0.62977737  0.09427033     0.95460
C370        C  0.34200977  0.87196841  0.13617998    -0.00140
C371        C  0.34302105  0.84744411  0.10040090    -0.00140
C372        C  0.34481090  0.09045095  0.86087701    -0.00140
C373        C  0.34435448  0.12145573  0.89179737    -0.00140
C374        C  0.62189669  0.87038000  0.13467971    -0.00140
C375        C  0.62015340  0.84713179  0.09773637    -0.00140
N376        N  0.43226513  0.92668151  0.17137916    -0.06820
N377        N  0.41537979  0.90275548  0.14132315    -0.58940
N378        N  0.40973934  0.02571093  0.20342397    -0.06500
N379        N  0.37857539  0.05152253  0.19669494    -0.61070
N380        N  0.43405546  0.02418955  0.17055264    -0.06100
N381        N  0.41797199  0.04832364  0.14025581    -0.58920
N382        N  0.40758842  0.92786389  0.20389976    -0.05780
N383        N  0.37503582  0.90439995  0.19706169    -0.61420
C384        C  0.37951384  0.88832034  0.15851841     0.95350
C385        C  0.38329230  0.06604990  0.15759787     0.95130
N386        N  0.43583699  0.02609645  0.33130917    -0.07010
N387        N  0.42818208  0.05716828  0.35829540    -0.59520
N388        N  0.40540335  0.92857816  0.30202312    -0.05130
N389        N  0.37716003  0.89887239  0.30879284    -0.60770
N390        N  0.43184175  0.93019170  0.33308661    -0.07040
N391        N  0.42123125  0.90302820  0.36234422    -0.59790
N392        N  0.40789330  0.02593799  0.30155499    -0.04770
N393        N  0.38049793  0.05660957  0.30771004    -0.60860
Mn394      Mn  0.40755162  0.97692288  0.25248767     1.18440
C395        C  0.39315240  0.07537588  0.34347443     0.97440
C396        C  0.38740653  0.88326461  0.34664800     0.98100
N397        N  0.53520773  0.02032603  0.17084017    -0.07060
N398        N  0.55050428  0.04495734  0.14064852    -0.63370
N399        N  0.55596920  0.91914872  0.20620897    -0.05860
N400        N  0.58578778  0.89114156  0.19975268    -0.64040
N401        N  0.53278659  0.92281510  0.17261780    -0.06560
N402        N  0.54907919  0.89961492  0.14191389    -0.63630
N403        N  0.56059455  0.01963711  0.20298455    -0.05460
N404        N  0.59202327  0.04488318  0.19570687    -0.64320
Mn405      Mn  0.48374485  0.97357911  0.16972368     1.10660
C406        C  0.58614954  0.06080774  0.15712480     0.98660
C407        C  0.58262108  0.87990390  0.15911273     0.98740
N408        N  0.53136685  0.92407560  0.33407679    -0.06570
N409        N  0.53913590  0.89392697  0.36204510    -0.61940
N410        N  0.56201825  0.02095634  0.30309097    -0.05890
N411        N  0.58941788  0.05165065  0.30935438    -0.58670
N412        N  0.53338256  0.02250896  0.33212014    -0.07200
N413        N  0.54017473  0.05454408  0.35821485    -0.61510
N414        N  0.55934343  0.92278704  0.30435379    -0.06190
N415        N  0.58656319  0.89200434  0.31144524    -0.58700
Mn416      Mn  0.48324393  0.97562827  0.33356864     1.20190
Mn417      Mn  0.56012565  0.97070597  0.25384059     1.10090
Cl418      Cl  0.48373181  0.97429701  0.25243715    -0.86670
C419        C  0.57399139  0.87440475  0.34769835     0.95670
C420        C  0.57536447  0.07231702  0.34386319     0.95460
N421        N  0.32234102  0.94180793  0.44653991    -0.06820
N422        N  0.34895019  0.91034147  0.44067994    -0.58940
N423        N  0.28588714  0.03549731  0.42083594    -0.06500
N424        N  0.29231501  0.06432647  0.39168888    -0.61070
N425        N  0.31509215  0.03760613  0.44943265    -0.06100
N426        N  0.34191676  0.06785812  0.44046694    -0.58920
N427        N  0.29182374  0.93902107  0.41975283    -0.05780
N428        N  0.29623088  0.90517421  0.39549725    -0.61420
C429        C  0.33168705  0.88746516  0.40932758     0.95350
C430        C  0.32733789  0.08401554  0.40441864     0.95130
N431        N  0.15574861  0.02740199  0.44584399    -0.07010
N432        N  0.12455257  0.04994553  0.42948655    -0.59520
N433        N  0.19726569  0.92827031  0.42703117    -0.05130
N434        N  0.19586365  0.89625278  0.40043029    -0.60770
N435        N  0.16349898  0.92921959  0.44984312    -0.07040
N436        N  0.13700978  0.89993665  0.43600534    -0.59790
N437        N  0.18789474  0.02903836  0.42074547    -0.04770
N438        N  0.17976607  0.05371115  0.38869470    -0.60860
Mn439      Mn  0.24019489  0.98316203  0.42137382     1.18440
C440        C  0.14046573  0.06683933  0.39372467     0.97440
C441        C  0.15751186  0.87968887  0.40439444     0.98100
N442        N  0.31782331  0.03435619  0.54913990    -0.07060
N443        N  0.34461307  0.06425840  0.55975494    -0.63370
N444        N  0.29093529  0.93472101  0.57216519    -0.05860
N445        N  0.29651646  0.90107751  0.59618463    -0.64040
N446        N  0.32088332  0.93767341  0.54462867    -0.06560
N447        N  0.34780538  0.90632212  0.54950124    -0.63630
N448        N  0.28935332  0.03068780  0.57793968    -0.05460
N449        N  0.29631575  0.05723265  0.60914810    -0.64320
Mn450      Mn  0.32002338  0.98841283  0.49743077     1.10660
C451        C  0.33086398  0.07801165  0.59741284     0.98660
C452        C  0.33203646  0.88384859  0.58158828     0.98740
N453        N  0.16164482  0.93107330  0.54986264    -0.06570
N454        N  0.13527659  0.90198563  0.56482264    -0.61940
N455        N  0.19289593  0.03391707  0.57134819    -0.05890
N456        N  0.18899872  0.06541903  0.59846864    -0.58670
N457        N  0.15940487  0.03109380  0.54809945    -0.07200
N458        N  0.13094560  0.05855574  0.56205221    -0.61510
N459        N  0.19515213  0.93148269  0.57288818    -0.06190
N460        N  0.19320959  0.90189073  0.60162165    -0.58700
Mn461      Mn  0.15763979  0.97992228  0.49856905     1.20190
Mn462      Mn  0.24140226  0.98273644  0.57424994     1.10090
Cl463      Cl  0.23961241  0.98436799  0.49782292    -0.86670
C464        C  0.15597930  0.88344815  0.59739947     0.95670
C465        C  0.14974013  0.08004735  0.59408499     0.95460
N466        N  0.02254414  0.31881473  0.43959401    -0.06820
N467        N  0.05258164  0.34582553  0.43109528    -0.58940
N468        N  0.92982079  0.28564273  0.42155183    -0.06500
N469        N  0.90035099  0.29360108  0.39427756    -0.61070
N470        N  0.93122230  0.31620607  0.44983677    -0.06100
N471        N  0.90293821  0.34565019  0.44242443    -0.58920
N472        N  0.02282796  0.28648565  0.41315730    -0.05780
N473        N  0.05404568  0.29010555  0.38690048    -0.61420
C474        C  0.07239595  0.32715762  0.39870990     0.95350
C475        C  0.88438110  0.33132109  0.40740087     0.95130
N476        N  0.93360636  0.15090899  0.44797359    -0.07010
N477        N  0.90921084  0.11999562  0.43323171    -0.59520
N478        N  0.02689293  0.18406243  0.41757756    -0.05130
N479        N  0.05348672  0.17860445  0.38716522    -0.60770
N480        N  0.02900448  0.15117784  0.44300042    -0.07040
N481        N  0.05570738  0.12204053  0.42842081    -0.59790
N482        N  0.92841029  0.18565324  0.42564940    -0.04770
N483        N  0.89858084  0.18005521  0.39828115    -0.60860
Mn484      Mn  0.97710129  0.23477416  0.41869573     1.18440
C485        C  0.88724139  0.13858536  0.40166202     0.97440
C486        C  0.07133463  0.14009566  0.39320853     0.98100
N487        N  0.94069967  0.31744128  0.54866124    -0.07060
N488        N  0.91013602  0.34331126  0.55937442    -0.63370
N489        N  0.03718680  0.28794229  0.56630350    -0.05860
N490        N  0.06847130  0.29538987  0.59160034    -0.64040
N491        N  0.03370246  0.31870573  0.53866613    -0.06560
N492        N  0.06261471  0.34790108  0.54458860    -0.63630
N493        N  0.94493998  0.28710237  0.57643056    -0.05460
N494        N  0.91788079  0.29158662  0.60667639    -0.64320
Mn495      Mn  0.98186084  0.31882823  0.49424786     1.10660
C496        C  0.89655968  0.32690096  0.59596794     0.98660
C497        C  0.08391260  0.33276116  0.57765051     0.98740
N498        N  0.03509945  0.15247836  0.54450707    -0.06570
N499        N  0.05893251  0.12241540  0.56193514    -0.61940
N500        N  0.94191613  0.18776612  0.57196950    -0.05890
N501        N  0.91321828  0.18559537  0.60049672    -0.58670
N502        N  0.93979254  0.15409119  0.54734261    -0.07200
N503        N  0.91049516  0.12743191  0.56044665    -0.61510
N504        N  0.03827482  0.18799743  0.56635514    -0.06190
N505        N  0.06512941  0.18355138  0.59644764    -0.58700
Mn506      Mn  0.98462503  0.14991210  0.49567026     1.20190
Mn507      Mn  0.99083501  0.23716016  0.57066747     1.10090
Cl508      Cl  0.98390478  0.23532724  0.49467811    -0.86670
C509        C  0.07815760  0.14287344  0.59449438     0.95670
C510        C  0.89362583  0.14803280  0.59384662     0.95460
C511        C  0.87720112  0.11576932  0.36128859    -0.00140
C512        C  0.84817832  0.08365833  0.35754201    -0.00140
N513        N  0.77792041  0.02672808  0.42163854    -0.06820
N514        N  0.78490150  0.05196849  0.38957169    -0.58940
N515        N  0.80972932  0.92832169  0.44953073    -0.06500
N516        N  0.83769344  0.90100782  0.43469438    -0.61070
N517        N  0.77546095  0.92543742  0.42749330    -0.06100
N518        N  0.77829061  0.89391290  0.40049558    -0.58920
N519        N  0.81056248  0.02639157  0.44625478    -0.05780
N520        N  0.84054108  0.05020280  0.42982799    -0.61420
C521        C  0.82392522  0.06642067  0.39420566     0.95350
C522        C  0.81764515  0.87972274  0.40347248     0.95130
N523        N  0.78439838  0.92787380  0.57355719    -0.07010
N524        N  0.79181701  0.90334322  0.60535164    -0.59520
N525        N  0.81116911  0.02937633  0.54760299    -0.05130
N526        N  0.83781087  0.05946956  0.55992533    -0.60770
N527        N  0.77969026  0.02765852  0.57356891    -0.07040
N528        N  0.78337044  0.05751306  0.60208412    -0.59790
N529        N  0.81770829  0.93146262  0.55059157    -0.04770
N530        N  0.84912298  0.91060496  0.56899807    -0.60860
Mn531      Mn  0.81420757  0.97908506  0.49824336     1.18440
C532        C  0.83185148  0.89240289  0.60367739     0.97440
C533        C  0.81959187  0.07743419  0.59414363     0.98100
N534        N  0.67942006  0.92760980  0.42350949    -0.07060
N535        N  0.67358818  0.89655316  0.39600579    -0.63370
N536        N  0.64974348  0.02538002  0.45405093    -0.05860
N537        N  0.62176591  0.05564194  0.44723457    -0.64040
N538        N  0.67806490  0.02568119  0.42454991    -0.06560
N539        N  0.66953514  0.05568262  0.39690820    -0.63630
N540        N  0.65098364  0.92641771  0.45263532    -0.05460
N541        N  0.62532836  0.89420164  0.44552186    -0.64320
Mn542      Mn  0.72812450  0.97676709  0.42352052     1.10660
C543        C  0.63997744  0.87559904  0.41022215     0.98660
C544        C  0.63415058  0.07394649  0.41111798     0.98740
N545        N  0.68273403  0.01974288  0.58198486    -0.06570
N546        N  0.67664742  0.04780141  0.61206462    -0.61940
N547        N  0.65471058  0.92634122  0.55285124    -0.05890
N548        N  0.62584566  0.89935794  0.56472935    -0.58670
N549        N  0.68690655  0.92352928  0.57775729    -0.07200
N550        N  0.68112777  0.89315571  0.60578614    -0.61510
N551        N  0.65288459  0.02184261  0.55431607    -0.06190
N552        N  0.62606436  0.05195318  0.56478656    -0.58700
Mn553      Mn  0.73398908  0.97448490  0.57684077     1.20190
Mn554      Mn  0.65111602  0.97519962  0.50324264     1.10090
Cl555      Cl  0.73170694  0.97680710  0.50044301    -0.86670
C556        C  0.64125819  0.06779040  0.60112174     0.95670
C557        C  0.64270094  0.87849978  0.59750082     0.95460
C558        C  0.85299667  0.87810787  0.64396551    -0.00140
C559        C  0.88529332  0.84927106  0.64570824    -0.00140
N560        N  0.06837967  0.77383857  0.54922462    -0.06820
N561        N  0.09888476  0.79890378  0.56354406    -0.58940
N562        N  0.03612510  0.67351254  0.57558476    -0.06500
N563        N  0.05206826  0.65038733  0.60682746    -0.61070
N564        N  0.06403474  0.67820800  0.54607825    -0.06100
N565        N  0.09811260  0.65881952  0.55659617    -0.58920
N566        N  0.03971526  0.76864437  0.57776005    -0.05780
N567        N  0.05026038  0.78915880  0.61111203    -0.61420
C568        C  0.08607056  0.80913542  0.60273257     0.95350
C569        C  0.09111092  0.64051103  0.59376811     0.95130
N570        N  0.90480886  0.68655831  0.54455430    -0.07010
N571        N  0.87138207  0.66354257  0.55058190    -0.59520
N572        N  0.94284611  0.77698559  0.58240706    -0.05130
N573        N  0.93846064  0.80085431  0.61596033    -0.60770
N574        N  0.91293386  0.78463056  0.55557018    -0.07040
N575        N  0.88707177  0.81390549  0.57171792    -0.59790
N576        N  0.93223472  0.67968697  0.57420649    -0.04770
N577        N  0.91660507  0.65247142  0.60184107    -0.60860
Mn578      Mn  0.98736693  0.72364350  0.57780775     1.18440
C579        C  0.87854715  0.64214723  0.58623277     0.97440
C580        C  0.90412762  0.82443065  0.60953613     0.98100
N581        N  0.06196093  0.67942413  0.44879246    -0.07060
N582        N  0.09358300  0.65490266  0.43947117    -0.63370
N583        N  0.03540931  0.78053603  0.42391623    -0.05860
N584        N  0.04142181  0.80892871  0.39487029    -0.64040
N585        N  0.06739031  0.77816285  0.44884771    -0.06560
N586        N  0.09737531  0.80358728  0.43487462    -0.63630
N587        N  0.03609755  0.68196643  0.41721869    -0.05460
N588        N  0.05191548  0.66056610  0.38478857    -0.64320
Mn589      Mn  0.06573976  0.72780215  0.49791196     1.10660
C590        C  0.08791691  0.64325485  0.39942711     0.98660
C591        C  0.08025573  0.82293890  0.40092974     0.98740
N592        N  0.91218699  0.78943142  0.45176355    -0.06570
N593        N  0.88219662  0.81400405  0.43643344    -0.61940
N594        N  0.93286309  0.68868983  0.41723289    -0.05890
N595        N  0.91701646  0.66482395  0.38617402    -0.58670
N596        N  0.90508258  0.69410342  0.44679262    -0.07200
N597        N  0.87090005  0.67480371  0.43643293    -0.61510
N598        N  0.94276203  0.78692782  0.42483447    -0.06190
N599        N  0.93579068  0.81209020  0.39314147    -0.58700
Mn600      Mn  0.90831099  0.73944554  0.49988461     1.20190
Mn601      Mn  0.98681511  0.73344476  0.42023412     1.10090
Cl602      Cl  0.98691131  0.73059029  0.49905073    -0.86670
C603        C  0.89776132  0.82838434  0.39970950     0.95670
C604        C  0.87782862  0.65559517  0.39930504     0.95460
C605        C  0.87324821  0.84187205  0.36246952    -0.00140
C606        C  0.83821651  0.86628202  0.36357328    -0.00140
C607        C  0.13703147  0.86406212  0.63576727    -0.00140
C608        C  0.10657708  0.83397024  0.63759251    -0.00140
C609        C  0.87325044  0.12731279  0.63026931    -0.00140
C610        C  0.84145583  0.09819399  0.63033013    -0.00140
C611        C  0.13663907  0.86593150  0.36478810    -0.00140
C612        C  0.10243486  0.84044143  0.36384268    -0.00140
C613        C  0.09008351  0.11713357  0.35623806    -0.00140
C614        C  0.11694602  0.08290836  0.35639586    -0.00140
C615        C  0.09478418  0.12252406  0.63380359    -0.00140
C616        C  0.12745277  0.09401054  0.63355055    -0.00140
C617        C  0.34948654  0.84329969  0.59634960    -0.00140
C618        C  0.37992225  0.84355282  0.62550173    -0.00140
C619        C  0.12054739  0.37282067  0.63204223    -0.00140
C620        C  0.12174853  0.35202919  0.59466364    -0.00140
C621        C  0.84418311  0.38168771  0.36409147    -0.00140
C622        C  0.84558620  0.34895568  0.39170692    -0.00140
C623        C  0.34536963  0.12153262  0.38408440    -0.00140
C624        C  0.37758016  0.11734537  0.35742192    -0.00140
C625        C  0.34505143  0.84387034  0.39782979    -0.00140
C626        C  0.37151368  0.84201748  0.36415186    -0.00140
C627        C  0.11521504  0.33851266  0.38755718    -0.00140
C628        C  0.11991310  0.37343884  0.36151696    -0.00140
C629        C  0.37295884  0.12115311  0.64243415    -0.00140
C630        C  0.34106027  0.12087368  0.61404896    -0.00140
C631        C  0.85401312  0.33378183  0.61118635    -0.00140
C632        C  0.84900933  0.36592667  0.64023690    -0.00140
C633        C  0.34499833  0.11438928  0.10528435    -0.00140
C634        C  0.34557265  0.08282852  0.13517026    -0.00140
C635        C  0.62385792  0.11195575  0.10649935    -0.00140
C636        C  0.62290918  0.07832914  0.13416415    -0.00140
C637        C  0.34652331  0.36816663  0.86665376    -0.00140
C638        C  0.37606859  0.33611587  0.86916969    -0.00140
C639        C  0.59218460  0.34497640  0.86323360    -0.00140
C640        C  0.62633462  0.37031966  0.86122467    -0.00140
C641        C  0.59198270  0.83400930  0.36493370    -0.00140
C642        C  0.62443046  0.83430995  0.39247799    -0.00140
C643        C  0.61657394  0.11447854  0.39371588    -0.00140
C644        C  0.59124920  0.11424601  0.35909681    -0.00140
C645        C  0.62283077  0.59056605  0.85853965    -0.00140
C646        C  0.59128536  0.61916458  0.86448527    -0.00140
C647        C  0.12740333  0.62640815  0.11771841    -0.00140
C648        C  0.09883890  0.62252920  0.14921677    -0.00140
C649        C  0.12819377  0.34234299  0.11490915    -0.00140
C650        C  0.09562270  0.33977779  0.14176964    -0.00140
C651        C  0.33892564  0.58936006  0.86795603    -0.00140
C652        C  0.37344617  0.61386212  0.86316485    -0.00140
C653        C  0.12584942  0.61045936  0.33664514    -0.00140
C654        C  0.12569696  0.63166982  0.37406145    -0.00140
C655        C  0.84131659  0.60481246  0.34458364    -0.00140
C656        C  0.84160023  0.63309080  0.37772518    -0.00140
C657        C  0.84350064  0.62010389  0.60882801    -0.00140
C658        C  0.84977533  0.58989466  0.63902330    -0.00140
C659        C  0.63271153  0.11223858  0.61493988    -0.00140
C660        C  0.59782714  0.11790330  0.63933303    -0.00140
C661        C  0.62450992  0.83858072  0.61577079    -0.00140
C662        C  0.59241921  0.84199345  0.64357784    -0.00140
C663        C  0.12294421  0.58816850  0.64709743    -0.00140
C664        C  0.12678143  0.61813672  0.61634436    -0.00140
C665        C  0.99268332  0.74635055  0.79028931    -0.00140
C666        C  0.99060117  0.78105102  0.76419599    -0.00140
C667        C  0.73650471  0.98797676  0.78299030    -0.00140
C668        C  0.76364840  0.98788889  0.74999275    -0.00140
C669        C  0.75401310  0.78231298  0.99009154    -0.00140
C670        C  0.78604520  0.75419777  0.99799708    -0.00140
C671        C  0.47342351  0.70534231  0.75753248    -0.00140
C672        C  0.47358399  0.73452629  0.72575184    -0.00140
C673        C  0.73132971  0.47918978  0.71387697    -0.00140
C674        C  0.70324664  0.47811408  0.74551500    -0.00140
C675        C  0.71863669  0.67650080  0.50302137    -0.00140
C676        C  0.69085823  0.71029006  0.50079076    -0.00140
C677        C  0.60373473  0.33585967  0.13107289    -0.00140
C678        C  0.63055201  0.36869886  0.14068628    -0.00140
C679        C  0.59349995  0.61745479  0.13559669    -0.00140
C680        C  0.62916853  0.59511126  0.14112519    -0.00140
C681        C  0.33313135  0.59891357  0.13343387    -0.00140
C682        C  0.36749374  0.62485796  0.13574054    -0.00140
C683        C  0.35018319  0.38089273  0.14096553    -0.00140
C684        C  0.38282670  0.35309367  0.14216254    -0.00140
C685        C  0.53702256  0.73770316  0.68076458    -0.21010
C686        C  0.51291576  0.75577533  0.71292947    -0.07570
C687        C  0.51989504  0.79892462  0.72347926     0.13290
C688        C  0.55401893  0.81921016  0.70678906    -0.21060
C689        C  0.57057837  0.80662128  0.66780573    -0.07580
C690        C  0.55903472  0.76488811  0.65346660     0.13280
C691        C  0.55789566  0.75203198  0.60822724    -0.24410
H692        H  0.53038281  0.70515564  0.67097605     0.14570
H693        H  0.56288373  0.84839750  0.72209007     0.14600
C694        C  0.49162982  0.82566268  0.75068604    -0.24360
H695        H  0.52784046  0.73705471  0.60037306     0.04810
H696        H  0.58166301  0.72770721  0.60115506     0.08040
H697        H  0.55990637  0.78007067  0.58769454     0.08040
H698        H  0.46581965  0.80714897  0.76366590     0.08020
H699        H  0.47838237  0.85220193  0.73198128     0.08020
H700        H  0.50927193  0.83975946  0.77710036     0.04800
C701        C  0.65461061  0.76179885  0.60837483    -0.21010
C702        C  0.63673234  0.79938003  0.59192850    -0.07570
C703        C  0.63514820  0.80252022  0.54867805     0.13290
C704        C  0.66456518  0.78103111  0.52603883    -0.21060
C705        C  0.67604086  0.73905345  0.53748576    -0.07580
C706        C  0.66735781  0.72839573  0.58037363     0.13280
C707        C  0.66354571  0.68338727  0.59612016    -0.24410
H708        H  0.65323191  0.75625039  0.64163509     0.14570
H709        H  0.67147079  0.79454986  0.49607870     0.14600
C710        C  0.60012540  0.82385354  0.52569294    -0.24360
H711        H  0.63525045  0.68006553  0.61535431     0.04810
H712        H  0.69037531  0.67510220  0.61611795     0.08040
H713        H  0.65973954  0.66054120  0.57000110     0.08040
H714        H  0.61244671  0.84812978  0.50440829     0.08020
H715        H  0.57711787  0.83876486  0.54690564     0.08020
H716        H  0.58316650  0.79962474  0.50716007     0.04800
C717        C  0.77295072  0.60459931  0.57799840    -0.21010
C718        C  0.80118234  0.63418576  0.59495965    -0.07570
C719        C  0.79116740  0.67829557  0.59316457     0.13290
C720        C  0.76006565  0.69223435  0.56621755    -0.21060
C721        C  0.73528812  0.66287664  0.54456700    -0.07580
C722        C  0.73844353  0.61866702  0.55485294     0.13280
C723        C  0.70956567  0.58596475  0.53610509    -0.24410
H724        H  0.77934886  0.57064602  0.58045887     0.14570
H725        H  0.75740869  0.72613984  0.55973221     0.14600
C726        C  0.81445935  0.71162650  0.61739123    -0.24360
H727        H  0.71727675  0.55310155  0.54670059     0.04810
H728        H  0.71132807  0.58622080  0.50161305     0.08040
H729        H  0.67732220  0.59291148  0.54569425     0.08040
H730        H  0.83098256  0.73322770  0.59567572     0.08020
H731        H  0.83706144  0.69727813  0.63929156     0.08020
H732        H  0.79223280  0.73078118  0.63617550     0.04800
C733        C  0.77554945  0.58304269  0.66984574    -0.21010
C734        C  0.81610990  0.56679968  0.66353067    -0.07570
C735        C  0.82527239  0.52766963  0.68405693     0.13290
C736        C  0.79867256  0.51247578  0.71404088    -0.21060
C737        C  0.75673917  0.51851378  0.70726067    -0.07580
C738        C  0.74436083  0.55617758  0.68609592     0.13280
C739        C  0.69979730  0.56750356  0.67863048    -0.24410
H740        H  0.76688009  0.61477492  0.66019015     0.14570
H741        H  0.80885982  0.48552497  0.73259700     0.14600
C742        C  0.85221693  0.49349628  0.66584155    -0.24360
H743        H  0.69683369  0.59276422  0.65454591     0.04810
H744        H  0.68597589  0.58038878  0.70761151     0.08040
H745        H  0.68234238  0.53907521  0.66757928     0.08040
H746        H  0.88086539  0.49076785  0.68440608     0.08020
H747        H  0.85661610  0.49778532  0.63188009     0.08020
H748        H  0.83703926  0.46204695  0.66814635     0.04800
C749        C  0.76605046  0.65439928  0.39261125    -0.21010
C750        C  0.80385963  0.63580933  0.40476568    -0.07570
C751        C  0.80688014  0.61989440  0.44543258     0.13290
C752        C  0.78175998  0.63788005  0.47526360    -0.21060
C753        C  0.74341509  0.65772537  0.46571154    -0.07580
C754        C  0.73347856  0.65855930  0.42202183     0.13280
C755        C  0.69016966  0.65587689  0.40490750    -0.24410
H756        H  0.76066248  0.66135321  0.36000810     0.14570
H757        H  0.79440869  0.63608941  0.50602347     0.14600
C758        C  0.83918230  0.58770241  0.45911122    -0.24360
H759        H  0.68795270  0.62904268  0.38248352     0.04810
H760        H  0.68224288  0.68494576  0.38688135     0.08040
H761        H  0.66726327  0.64967732  0.42984005     0.08040
H762        H  0.86069275  0.60244369  0.48200167     0.08020
H763        H  0.85734653  0.57461201  0.43265307     0.08020
H764        H  0.82349826  0.56027289  0.47421637     0.04800
C765        C  0.38639484  0.68303597  0.83097547    -0.21010
C766        C  0.38308193  0.63869844  0.82483801    -0.07570
C767        C  0.39919120  0.62137883  0.78731279     0.13290
C768        C  0.41775581  0.64982767  0.75873673    -0.21060
C769        C  0.43366237  0.68895254  0.77400358    -0.07580
C770        C  0.41894430  0.70434021  0.81258514     0.13280
C771        C  0.43748737  0.74126968  0.83634952    -0.24410
H772        H  0.37034558  0.69884064  0.85619830     0.14570
H773        H  0.42924511  0.63757837  0.72926304     0.14600
C774        C  0.40313175  0.57385659  0.78000437    -0.24360
H775        H  0.41330261  0.76540389  0.84295691     0.04810
H776        H  0.46199136  0.75750435  0.81901632     0.08040
H777        H  0.45054203  0.72965337  0.86626015     0.08040
H778        H  0.37283863  0.55899674  0.77412426     0.08020
H779        H  0.41781778  0.55849934  0.80741275     0.08020
H780        H  0.42272088  0.56676878  0.75240716     0.04800
C781        C  0.68598748  0.57679913  0.81567634    -0.21010
C782        C  0.64206117  0.57744605  0.81667070    -0.07570
C783        C  0.62180334  0.55199503  0.78580816     0.13290
C784        C  0.64499153  0.52734678  0.75788718    -0.21060
C785        C  0.68640499  0.51823467  0.76514536    -0.07580
C786        C  0.70766409  0.54394058  0.79442445     0.13280
C787        C  0.75133365  0.53471217  0.80762743    -0.24410
H788        H  0.70279531  0.59570224  0.83850967     0.14570
H789        H  0.62949999  0.51144751  0.73256026     0.14600
C790        C  0.57649845  0.54430292  0.78417520    -0.24360
H791        H  0.75141049  0.52815285  0.84147634     0.04810
H792        H  0.77131956  0.56272475  0.80106735     0.08040
H793        H  0.76449996  0.50603298  0.79227228     0.08040
H794        H  0.56140403  0.57221843  0.76986443     0.08020
H795        H  0.56599812  0.53542952  0.81562711     0.08020
H796        H  0.56807703  0.51677601  0.76381941     0.04800
C797        C  0.57662814  0.67979746  0.81725517    -0.21010
C798        C  0.56696621  0.63833565  0.83041667    -0.07570
C799        C  0.52831802  0.62149468  0.81898973     0.13290
C800        C  0.50733694  0.64058377  0.78640917    -0.21060
C801        C  0.51143634  0.68455553  0.77789049    -0.07580
C802        C  0.54698484  0.70490872  0.79602489     0.13280
C803        C  0.55243459  0.75212900  0.80110490    -0.24410
H804        H  0.60433603  0.69474548  0.82943654     0.14570
H805        H  0.48476441  0.62105429  0.77114934     0.14600
C806        C  0.50721043  0.58430676  0.84011667    -0.24360
H807        H  0.56177174  0.75990687  0.83359986     0.04810
H808        H  0.52318219  0.76875704  0.79691111     0.08040
H809        H  0.57668960  0.76392336  0.77961632     0.08040
H810        H  0.47860084  0.59607122  0.85538867     0.08020
H811        H  0.52660931  0.56858047  0.86397712     0.08020
H812        H  0.49797314  0.55974455  0.81680347     0.04800
C813        C  0.61655584  0.76627765  0.43291588    -0.21010
C814        C  0.64237994  0.79346105  0.40996805    -0.07570
C815        C  0.68507996  0.78279058  0.40765402     0.13290
C816        C  0.70129287  0.75128467  0.43450626    -0.21060
C817        C  0.67510521  0.72637479  0.45969320    -0.07580
C818        C  0.63189940  0.73092441  0.45463796     0.13280
C819        C  0.60167600  0.70267011  0.47725004    -0.24410
H820        H  0.58462147  0.77441068  0.43730808     0.14570
H821        H  0.73449674  0.74797857  0.43778779     0.14600
C822        C  0.71394078  0.80422409  0.37761786    -0.24360
H823        H  0.58435578  0.72163198  0.50082350     0.04810
H824        H  0.57944369  0.68889555  0.45449070     0.08040
H825        H  0.61730750  0.67565825  0.49320909     0.08040
H826        H  0.72038377  0.83720457  0.38768739     0.08020
H827        H  0.70036261  0.80402161  0.34585753     0.08020
H828        H  0.74419402  0.78735578  0.37600628     0.04800
C829        C  0.62611116  0.39974355  0.78655873    -0.21010
C830        C  0.64767085  0.38159839  0.82043583    -0.07570
C831        C  0.69130922  0.38530851  0.81993876     0.13290
C832        C  0.70915507  0.41791107  0.79620997    -0.21060
C833        C  0.68728375  0.43714734  0.76337979    -0.07580
C834        C  0.64670568  0.42277557  0.75547223     0.13280
C835        C  0.62424283  0.43160069  0.71532903    -0.24410
H836        H  0.59319367  0.39924738  0.78462750     0.14570
H837        H  0.73953290  0.42925536  0.80493681     0.14600
C838        C  0.71878804  0.35870826  0.84754317    -0.24360
H839        H  0.59503431  0.44923497  0.72155248     0.04810
H840        H  0.61622568  0.40068400  0.70018499     0.08040
H841        H  0.64358417  0.44987636  0.69312371     0.08040
H842        H  0.70125450  0.33343742  0.86402306     0.08020
H843        H  0.73422297  0.37941734  0.87081890     0.08020
H844        H  0.74276625  0.34261964  0.82825918     0.04800
C845        C  0.78275063  0.40743702  0.63187794    -0.21010
C846        C  0.80898226  0.38270063  0.65720587    -0.07570
C847        C  0.80157283  0.38240679  0.70064524     0.13290
C848        C  0.77326404  0.41128406  0.71798374    -0.21060
C849        C  0.74918625  0.43904705  0.69356718    -0.07580
C850        C  0.75264652  0.43512659  0.64953620     0.13280
C851        C  0.72639976  0.46199182  0.62105709    -0.24410
H852        H  0.78785091  0.40747172  0.59850988     0.14570
H853        H  0.77425271  0.41514889  0.75109694     0.14600
C854        C  0.82405248  0.35291102  0.73009924    -0.24360
H855        H  0.73129052  0.45325267  0.58783025     0.04810
H856        H  0.73429443  0.49625459  0.62467130     0.08040
H857        H  0.69322470  0.45713969  0.62845926     0.08040
H858        H  0.84357982  0.37195062  0.75174489     0.08020
H859        H  0.84355203  0.32907739  0.71358957     0.08020
H860        H  0.80115092  0.33466953  0.74864260     0.04800
C861        C  0.37679868  0.79227990  0.68202248    -0.21010
C862        C  0.39499899  0.80393777  0.64459536    -0.07570
C863        C  0.43185434  0.78384648  0.63230076     0.13290
C864        C  0.44583939  0.74913743  0.65549504    -0.21060
C865        C  0.43640862  0.74654388  0.69831423    -0.07580
C866        C  0.39866887  0.76742595  0.71097237     0.13280
C867        C  0.38060277  0.76752224  0.75375825    -0.24410
H868        H  0.34823517  0.80814158  0.69099860     0.14570
H869        H  0.47053851  0.73026634  0.64259103     0.14600
C870        C  0.46100351  0.80245538  0.60059959    -0.24360
H871        H  0.35357302  0.78932278  0.75691765     0.04810
H872        H  0.40353599  0.77997722  0.77576327     0.08040
H873        H  0.36839385  0.73540511  0.76085399     0.08040
H874        H  0.44899309  0.83181974  0.58580653     0.08020
H875        H  0.46879928  0.77841352  0.57637111     0.08020
H876        H  0.49001818  0.81192258  0.61660801     0.04800
C877        C  0.78652015  0.09247871  0.68486572    -0.21010
C878        C  0.82617670  0.08100205  0.67111139    -0.07570
C879        C  0.84357441  0.04399276  0.68827132     0.13290
C880        C  0.82604713  0.02770181  0.72464784    -0.21060
C881        C  0.78295522  0.02841836  0.72986068    -0.07580
C882        C  0.76273991  0.06309404  0.70846067     0.13280
C883        C  0.71726915  0.06727283  0.70291984    -0.24410
H884        H  0.77141329  0.11934507  0.66983338     0.14570
H885        H  0.84468118  0.00882866  0.74460840     0.14600
C886        C  0.87089482  0.01455556  0.66305425    -0.24360
H887        H  0.70964488  0.08416334  0.67360321     0.04810
H888        H  0.70483272  0.08808863  0.72773578     0.08040
H889        H  0.70321955  0.03536358  0.70023504     0.08040
H890        H  0.87802374  0.02644173  0.63153599     0.08020
H891        H  0.85448251  0.98380904  0.65800413     0.08020
H892        H  0.90017051  0.00841941  0.67930684     0.04800
C893        C  0.09795201  0.81069048  0.71439591    -0.21010
C894        C  0.08259140  0.82939200  0.67755918    -0.07570
C895        C  0.04030955  0.83795554  0.67593593     0.13290
C896        C  0.01573409  0.80825583  0.69616584    -0.21060
C897        C  0.02697842  0.79444008  0.73627264    -0.07580
C898        C  0.06978529  0.80045239  0.74684885     0.13280
C899        C  0.08577336  0.80390708  0.79051753    -0.24410
H900        H  0.13096520  0.80793685  0.71928185     0.14570
H901        H  0.98574357  0.80088247  0.68341685     0.14600
C902        C  0.02202110  0.87033578  0.64605843    -0.24360
H903        H  0.10466023  0.83340679  0.79377750     0.04810
H904        H  0.10555776  0.77596777  0.79819811     0.08040
H905        H  0.06007787  0.80765601  0.81269685     0.08040
H906        H  0.04529117  0.88404388  0.62462467     0.08020
H907        H  0.01016626  0.89799987  0.66406618     0.08020
H908        H  0.99697742  0.85609981  0.62702137     0.04800
C909        C  0.93661705  0.85941701  0.70420168    -0.21010
C910        C  0.90301727  0.83689421  0.68759709    -0.07570
C911        C  0.88930536  0.80071911  0.70955395     0.13290
C912        C  0.91311857  0.78513101  0.74311294    -0.21060
C913        C  0.95015216  0.80555601  0.75574715    -0.07580
C914        C  0.95440092  0.84831351  0.74272336     0.13280
C915        C  0.98492465  0.87817231  0.76358846    -0.24410
H916        H  0.94901086  0.88600740  0.68738354     0.14570
H917        H  0.90196985  0.75731688  0.75838019     0.14600
C918        C  0.85152501  0.77692919  0.69556341    -0.24360
H919        H  0.00999548  0.88718512  0.74183711     0.04810
H920        H  0.99897871  0.86324706  0.79158161     0.08040
H921        H  0.96923619  0.90783797  0.77411533     0.08040
H922        H  0.85616505  0.76689497  0.66285984     0.08020
H923        H  0.82400952  0.79811177  0.69758119     0.08020
H924        H  0.84576222  0.74799128  0.71464998     0.04800
C925        C  0.78717399  0.88831010  0.68544831    -0.21010
C926        C  0.83059242  0.89263380  0.68433185    -0.07570
C927        C  0.84755463  0.91680843  0.71858913     0.13290
C928        C  0.82066961  0.93424760  0.74862842    -0.21060
C929        C  0.78123610  0.94602961  0.73537235    -0.07580
C930        C  0.76415760  0.92246809  0.70199364     0.13280
C931        C  0.72399601  0.93419176  0.68150601    -0.24410
H932        H  0.77184541  0.86549265  0.66516439     0.14570
H933        H  0.83322333  0.94915071  0.77648886     0.14600
C934        C  0.89054818  0.93354435  0.72132002    -0.24360
H935        H  0.73008047  0.94283444  0.64868752     0.04810
H936        H  0.70926696  0.96224029  0.69605782     0.08040
H937        H  0.70222573  0.90684361  0.68299372     0.08040
H938        H  0.90502059  0.93426077  0.69019836     0.08020
H939        H  0.90654655  0.91642559  0.74642725     0.08020
H940        H  0.89238882  0.96655689  0.73290055     0.04800
C941        C  0.72907369  0.83582288  0.04453922    -0.21010
C942        C  0.72429672  0.79609731  0.02381288    -0.07570
C943        C  0.68453200  0.77812834  0.02286895     0.13290
C944        C  0.65168034  0.80094539  0.03960264    -0.21060
C945        C  0.65640479  0.83578657  0.06755392    -0.07580
C946        C  0.69485869  0.85721303  0.06339357     0.13280
C947        C  0.69829684  0.90471949  0.06904147    -0.24410
H948        H  0.75838619  0.85228820  0.04234395     0.14570
H949        H  0.62225042  0.79189896  0.02725123     0.14600
C950        C  0.67472619  0.73533274  0.00290876    -0.24360
H951        H  0.70742916  0.91964773  0.03917926     0.04810
H952        H  0.72252980  0.91166156  0.09217492     0.08040
H953        H  0.66855305  0.91979147  0.07802684     0.08040
H954        H  0.70258898  0.71806565  0.99181530     0.08020
H955        H  0.65319192  0.73963586  0.97636919     0.08020
H956        H  0.65952721  0.71447298  0.02623486     0.04800
C957        C  0.67706020  0.92997679  0.86596428    -0.21010
C958        C  0.66163992  0.89386493  0.84526423    -0.07570
C959        C  0.67919144  0.88257120  0.80648229     0.13290
C960        C  0.70655836  0.91128648  0.78703704    -0.21060
C961        C  0.72117921  0.94868182  0.80718855    -0.07580
C962        C  0.71063812  0.95280866  0.84997628     0.13280
C963        C  0.73588478  0.97829955  0.88041942    -0.24410
H964        H  0.66379988  0.93982368  0.89547071     0.14570
H965        H  0.71351237  0.90491094  0.75537640     0.14600
C966        C  0.66718310  0.84168045  0.78442250    -0.24360
H967        H  0.74521011  0.95747892  0.90667426     0.04810
H968        H  0.71714320  0.00481609  0.89344775     0.08040
H969        H  0.76490605  0.98999397  0.86624755     0.08040
H970        H  0.63348429  0.84066695  0.77821109     0.08020
H971        H  0.67575828  0.81399758  0.80411812     0.08020
H972        H  0.68342671  0.83808207  0.75412247     0.04800
C973        C  0.69305878  0.85443770  0.92737538    -0.21010
C974        C  0.66754501  0.82623055  0.90502274    -0.07570
C975        C  0.68204089  0.78351955  0.89915089     0.13290
C976        C  0.71641163  0.76886131  0.92239948    -0.21060
C977        C  0.73868876  0.79698788  0.94833777    -0.07580
C978        C  0.73081388  0.84111924  0.94405244     0.13280
C979        C  0.76088253  0.87438240  0.95928123    -0.24410
H980        H  0.68306935  0.88664599  0.93378763     0.14570
H981        H  0.72361136  0.73498329  0.92277344     0.14600
C982        C  0.66090785  0.75222652  0.87050784    -0.24360
H983        H  0.77201715  0.89305608  0.93226539     0.04810
H984        H  0.78835747  0.85981285  0.97439127     0.08040
H985        H  0.74567788  0.89659401  0.98149796     0.08040
H986        H  0.63486494  0.76702354  0.85332047     0.08020
H987        H  0.64908230  0.72476125  0.88873641     0.08020
H988        H  0.68343749  0.74010752  0.84716304     0.04800
C989        C  0.65737809  0.07497256  0.79121208    -0.21010
C990        C  0.66078812  0.08680894  0.83330825    -0.07570
C991        C  0.70299813  0.08028327  0.84842006     0.13290
C992        C  0.73077315  0.05552911  0.82387169    -0.21060
C993        C  0.71473031  0.02793365  0.79383210    -0.07580
C994        C  0.67471631  0.03593478  0.77949903     0.13280
C995        C  0.64985706  0.00448952  0.75410555    -0.24410
H996        H  0.63585072  0.09061064  0.77049832     0.14570
H997        H  0.76297897  0.05197128  0.83253073     0.14600
C998        C  0.72191308  0.09525935  0.88835316    -0.24360
H999        H  0.62207453  0.99525406  0.77186359     0.04810
H1000       H  0.66641114  0.97448555  0.74746870     0.08040
H1001       H  0.64073504  0.01844985  0.72409131     0.08040
H1002       H  0.70847296  0.07733204  0.91439922     0.08020
H1003       H  0.72040272  0.13026683  0.89037774     0.08020
H1004       H  0.75551886  0.08810411  0.89059060     0.04800
C1005       C  0.06073128  0.69155988  0.86504243    -0.21010
C1006       C  0.08370717  0.66366395  0.83986845    -0.07570
C1007       C  0.08689313  0.67382964  0.79685025     0.13290
C1008       C  0.05737489  0.70188709  0.77924330    -0.21060
C1009       C  0.03240013  0.72737341  0.80534353    -0.07580
C1010       C  0.04103295  0.72710900  0.84845094     0.13280
C1011       C  0.03101652  0.76386218  0.87738528    -0.24410
H1012       H  0.05528580  0.68500004  0.89722063     0.14570
H1013       H  0.05402656  0.70402253  0.74572982     0.14600
C1014       C  0.12057193  0.65487083  0.77011015    -0.24360
H1015       H  0.01382239  0.75248198  0.90510642     0.04810
H1016       H  0.01290082  0.78937491  0.86175479     0.08040
H1017       H  0.06038835  0.77830093  0.88849302     0.08040
H1018       H  0.12092773  0.61963170  0.77177147     0.08020
H1019       H  0.15094412  0.66658928  0.78149909     0.08020
H1020       H  0.11711779  0.66438144  0.73697772     0.04800
C1021       C  0.82863239  0.68881206  0.98011274    -0.21010
C1022       C  0.81027086  0.72713114  0.96549584    -0.07570
C1023       C  0.81778060  0.73624105  0.92248188     0.13290
C1024       C  0.83143987  0.70271961  0.89554249    -0.21060
C1025       C  0.84794002  0.66449096  0.91194671    -0.07580
C1026       C  0.85272829  0.66211529  0.95546471     0.13280
C1027       C  0.87746995  0.62724777  0.97684756    -0.24410
H1028       H  0.82384589  0.67756500  0.01116724     0.14570
H1029       H  0.83087096  0.70720922  0.86209624     0.14600
C1030       C  0.81789515  0.78067512  0.90497316    -0.24360
H1031       H  0.85736526  0.60777067  0.99700210     0.04810
H1032       H  0.90185935  0.64211934  0.99648052     0.08040
H1033       H  0.89234031  0.60465279  0.95482565     0.08040
H1034       H  0.81574940  0.80516637  0.92986100     0.08020
H1035       H  0.79273071  0.78447849  0.88173874     0.08020
H1036       H  0.84784783  0.78644823  0.88906309     0.04800
C1037       C  0.90357867  0.66627769  0.79567342    -0.21010
C1038       C  0.90280775  0.65782698  0.83898099    -0.07570
C1039       C  0.92795229  0.68421286  0.86444818     0.13290
C1040       C  0.94599396  0.72063463  0.84714829    -0.21060
C1041       C  0.95534674  0.72178063  0.80453542    -0.07580
C1042       C  0.93505830  0.69162201  0.77848863     0.13280
C1043       C  0.94496912  0.68595399  0.73284210    -0.24410
H1044       H  0.88301599  0.64943269  0.77463796     0.14570
H1045       H  0.95761793  0.74463974  0.86782468     0.14600
C1046       C  0.94239031  0.67186998  0.90720899    -0.24360
H1047       H  0.95561872  0.65261970  0.72724001     0.04810
H1048       H  0.96962626  0.70772779  0.72195220     0.08040
H1049       H  0.91686313  0.69187941  0.71378571     0.08040
H1050       H  0.93475280  0.63830082  0.91409232     0.08020
H1051       H  0.92948472  0.69407836  0.93095575     0.08020
H1052       H  0.97665268  0.67372388  0.90866915     0.04800
C1053       C  0.85142289  0.70897814  0.08049597    -0.21010
C1054       C  0.82434107  0.67809704  0.09741736    -0.07570
C1055       C  0.78133250  0.68610303  0.09365810     0.13290
C1056       C  0.76739749  0.71685994  0.06499030    -0.21060
C1057       C  0.79533284  0.74293698  0.04297825    -0.07580
C1058       C  0.83683248  0.74339646  0.05652814     0.13280
C1059       C  0.86695628  0.77575607  0.03975903    -0.24410
H1060       H  0.88418885  0.70387535  0.08047014     0.14570
H1061       H  0.73503493  0.71699604  0.05722697     0.14600
C1062       C  0.74945214  0.65999745  0.11642933    -0.24360
H1063       H  0.89820097  0.77158403  0.05360058     0.04810
H1064       H  0.85589536  0.80846803  0.04764263     0.08040
H1065       H  0.86993408  0.77284109  0.00545092     0.08040
H1066       H  0.76356921  0.63733862  0.13885678     0.08020
H1067       H  0.73057676  0.64163396  0.09368235     0.08020
H1068       H  0.72879683  0.68172552  0.13435744     0.04800
C1069       C  0.68549679  0.03038824  0.12702723    -0.21010
C1070       C  0.66333273  0.06081602  0.15061644    -0.07570
C1071       C  0.67827747  0.07123908  0.19083140     0.13290
C1072       C  0.70933145  0.04572842  0.20826115    -0.21060
C1073       C  0.73318922  0.01706586  0.18410734    -0.07580
C1074       C  0.72357699  0.01415712  0.14133680     0.13280
C1075       C  0.75317665  0.99295130  0.11160443    -0.24410
H1076       H  0.67417689  0.02105736  0.09652056     0.14570
H1077       H  0.71248963  0.04623289  0.24180860     0.14600
C1078       C  0.65993665  0.10599850  0.21774717    -0.24360
H1079       H  0.74010331  0.99087677  0.07964704     0.04810
H1080       H  0.76174691  0.96055671  0.12233376     0.08040
H1081       H  0.78191705  0.01224068  0.11019826     0.08040
H1082       H  0.64812860  0.09179830  0.24701248     0.08020
H1083       H  0.63437543  0.12329200  0.20223809     0.08020
H1084       H  0.68429532  0.12964506  0.22576228     0.04800
C1085       C  0.73085074  0.90104993  0.17907248    -0.21010
C1086       C  0.72056025  0.93987476  0.19975710    -0.07570
C1087       C  0.67810840  0.94894361  0.20202007     0.13290
C1088       C  0.65265251  0.93378345  0.17044744    -0.21060
C1089       C  0.65971272  0.89264941  0.15348332    -0.07580
C1090       C  0.69922718  0.87414031  0.16229702     0.13280
C1091       C  0.70894650  0.82753377  0.15561611    -0.24410
H1092       H  0.76257949  0.89169668  0.17485659     0.14570
H1093       H  0.62357113  0.95022830  0.16545618     0.14600
C1094       C  0.65867619  0.97003962  0.23929144    -0.24360
H1095       H  0.71858899  0.81329057  0.18574134     0.04810
H1096       H  0.73483060  0.82386534  0.13321786     0.08040
H1097       H  0.68185330  0.80920970  0.14434627     0.08040
H1098       H  0.64330099  0.00013355  0.23074778     0.08020
H1099       H  0.68154051  0.97634053  0.26391630     0.08020
H1100       H  0.63521548  0.94826335  0.25275427     0.04800
C1101       C  0.80928020  0.93216261  0.33153763    -0.21010
C1102       C  0.82154528  0.88937916  0.32526999    -0.07570
C1103       C  0.81440195  0.87205345  0.28457790     0.13290
C1104       C  0.80511953  0.90061354  0.25177693    -0.21060
C1105       C  0.78857102  0.94128437  0.26107019    -0.07580
C1106       C  0.78396267  0.95209212  0.30297526     0.13280
C1107       C  0.75430589  0.98546273  0.31786239    -0.24410
H1108       H  0.81516584  0.94880052  0.36056998     0.14570
H1109       H  0.81004514  0.89051233  0.22005554     0.14600
C1110       C  0.81166950  0.82508167  0.27528865    -0.24360
H1111       H  0.77208687  0.01059908  0.33249172     0.04810
H1112       H  0.73660397  0.00025236  0.29248433     0.08040
H1113       H  0.73244937  0.97150461  0.34070376     0.08040
H1114       H  0.81182102  0.80637124  0.30430774     0.08020
H1115       H  0.83711695  0.81493753  0.25422945     0.08020
H1116       H  0.78174278  0.81816624  0.25965053     0.04800
C1117       C  0.79451667  0.05497751  0.25360158    -0.21010
C1118       C  0.81254589  0.01566836  0.24291541    -0.07570
C1119       C  0.85180789  0.00830378  0.26201718     0.13290
C1120       C  0.86426623  0.03237546  0.29765024    -0.21060
C1121       C  0.83826074  0.06392970  0.31518351    -0.07580
C1122       C  0.80235095  0.07484426  0.29213514     0.13280
C1123       C  0.76961533  0.10485149  0.30798753    -0.24410
H1124       H  0.77377275  0.07064109  0.23299024     0.14570
H1125       H  0.89310679  0.02460766  0.31311184     0.14600
C1126       C  0.88032292  0.97410074  0.24594685    -0.24360
H1127       H  0.74075385  0.08638753  0.31285643     0.04810
H1128       H  0.76287513  0.13024263  0.28487486     0.08040
H1129       H  0.77871731  0.12025714  0.33768586     0.08040
H1130       H  0.86763430  0.95801630  0.21779991     0.08020
H1131       H  0.91050592  0.98851433  0.23750892     0.08020
H1132       H  0.88533616  0.95007030  0.27057828     0.04800
C1133       C  0.90921806  0.73128757  0.19701481    -0.21010
C1134       C  0.95058864  0.73388904  0.18261095    -0.07570
C1135       C  0.95920719  0.71100612  0.14523652     0.13290
C1136       C  0.93360594  0.67724579  0.13283847    -0.21060
C1137       C  0.89546513  0.66961970  0.15227023    -0.07580
C1138       C  0.88186314  0.69920311  0.18274079     0.13280
C1139       C  0.83929045  0.69746213  0.20148515    -0.24410
H1140       H  0.89715578  0.75301192  0.21973630     0.14570
H1141       H  0.94280157  0.65731126  0.10664622     0.14600
C1142       C  0.99514306  0.72153810  0.11744073    -0.24360
H1143       H  0.84180453  0.69406650  0.23579969     0.04810
H1144       H  0.82069177  0.67055155  0.18911473     0.08040
H1145       H  0.82256717  0.72768323  0.19455542     0.08040
H1146       H  0.01714204  0.69425475  0.11699023     0.08020
H1147       H  0.01109382  0.75124940  0.12740693     0.08020
H1148       H  0.98377972  0.72706605  0.08523765     0.04800
C1149       C  0.06293611  0.73404035  0.19067650    -0.21010
C1150       C  0.02452365  0.72022350  0.20654277    -0.07570
C1151       C  0.02144512  0.67691800  0.21852418     0.13290
C1152       C  0.05427015  0.64936803  0.21008986    -0.21060
C1153       C  0.08404480  0.65920605  0.17972706    -0.07580
C1154       C  0.09412735  0.70367830  0.18008396     0.13280
C1155       C  0.13813177  0.71852214  0.18374330    -0.24410
H1156       H  0.06890586  0.76796632  0.18741781     0.14570
H1157       H  0.05347266  0.61826992  0.22391642     0.14600
C1158       C  0.98386120  0.65767784  0.23899173    -0.24360
H1159       H  0.14233739  0.73558317  0.21390668     0.04810
H1160       H  0.14615509  0.74105826  0.15845426     0.08040
H1161       H  0.15954641  0.69089424  0.18425608     0.08040
H1162       H  0.95866931  0.68060035  0.24498750     0.08020
H1163       H  0.99233936  0.64326410  0.26925328     0.08020
H1164       H  0.97138855  0.63251858  0.21856561     0.04800
C1165       C  0.03470977  0.83723931  0.26596186    -0.21010
C1166       C  0.02435591  0.79345648  0.26493171    -0.07570
C1167       C  0.04535846  0.76635442  0.29346727     0.13290
C1168       C  0.07795214  0.78254429  0.31745138    -0.21060
C1169       C  0.08217072  0.82680432  0.32377100    -0.07580
C1170       C  0.05862384  0.85451151  0.29856524     0.13280
C1171       C  0.05441750  0.90147464  0.30767816    -0.24410
H1172       H  0.02029515  0.85899290  0.24456293     0.14570
H1173       H  0.09449981  0.76094706  0.33802550     0.14600
C1174       C  0.03032771  0.72307640  0.30591778    -0.24360
H1175       H  0.06852635  0.91913397  0.28193631     0.04810
H1176       H  0.06939940  0.91147656  0.33716411     0.08040
H1177       H  0.02118222  0.91019053  0.31009109     0.08040
H1178       H  0.05363597  0.69821894  0.29793720     0.08020
H1179       H  0.00046571  0.71570664  0.29192741     0.08020
H1180       H  0.02474197  0.72302144  0.33998383     0.04800
C1181       C  0.92735391  0.76689294  0.28835674    -0.21010
C1182       C  0.94695669  0.79517971  0.26087307    -0.07570
C1183       C  0.93397449  0.83850476  0.26086686     0.13290
C1184       C  0.90946055  0.85379661  0.29392622    -0.21060
C1185       C  0.89161630  0.82554455  0.32255917    -0.07580
C1186       C  0.89741699  0.78095384  0.31659747     0.13280
C1187       C  0.87366862  0.74791702  0.34109247    -0.24410
H1188       H  0.93487139  0.73328364  0.28737557     0.14570
H1189       H  0.90441176  0.88774365  0.29753021     0.14600
C1190       C  0.94371295  0.86856125  0.22581950    -0.24360
H1191       H  0.88035613  0.71507411  0.32957868     0.04810
H1192       H  0.83994751  0.75278585  0.33787849     0.08040
H1193       H  0.88163672  0.74919566  0.37452910     0.08040
H1194       H  0.96224624  0.85272048  0.20103665     0.08020
H1195       H  0.96040527  0.89708079  0.23786192     0.08020
H1196       H  0.91432650  0.87959138  0.21145822     0.04800
C1197       C  0.20371127  0.90585841  0.72558101    -0.21010
C1198       C  0.17724265  0.93698264  0.74347580    -0.07570
C1199       C  0.13486738  0.93536495  0.73247460     0.13290
C1200       C  0.12274845  0.91252565  0.69689234    -0.21060
C1201       C  0.15028821  0.88494086  0.67617766    -0.07580
C1202       C  0.18962560  0.87792248  0.69412292     0.13280
C1203       C  0.21706660  0.84202987  0.67939509    -0.24410
H1204       H  0.23640877  0.90591850  0.73238922     0.14570
H1205       H  0.09159555  0.91657317  0.68512359     0.14600
C1206       C  0.10252271  0.96073132  0.75545263    -0.24360
H1207       H  0.24682249  0.84118765  0.69670745     0.04810
H1208       H  0.22395060  0.84569539  0.64604529     0.08040
H1209       H  0.20117301  0.81097251  0.68403690     0.08040
H1210       H  0.08771678  0.98348016  0.73374529     0.08020
H1211       H  0.07851921  0.93861747  0.76742662     0.08020
H1212       H  0.11554521  0.97860967  0.78238178     0.04800
C1213       C  0.16714752  0.05683759  0.74375820    -0.21010
C1214       C  0.18284352  0.01636328  0.73159766    -0.07570
C1215       C  0.18274678  0.00767306  0.68892708     0.13290
C1216       C  0.15260134  0.02640414  0.66468587    -0.21060
C1217       C  0.14268053  0.06961614  0.67198026    -0.07580
C1218       C  0.15370545  0.08614566  0.71235060     0.13280
C1219       C  0.15645229  0.13302341  0.72206468    -0.24410
H1220       H  0.16902121  0.06694132  0.77601011     0.14570
H1221       H  0.14479708  0.01084621  0.63552022     0.14600
C1222       C  0.21684922  0.98306989  0.66818011    -0.24360
H1223       H  0.13275842  0.14175615  0.74547774     0.04810
H1224       H  0.15309782  0.15287365  0.69378490     0.08040
H1225       H  0.18748925  0.14026830  0.73513931     0.08040
H1226       H  0.20388513  0.95449269  0.65358043     0.08020
H1227       H  0.23159882  0.00321892  0.64413753     0.08020
H1228       H  0.24150180  0.97371929  0.69029000     0.04800
C1229       C  0.25596021  0.05684321  0.78748836    -0.21010
C1230       C  0.23749006  0.02359106  0.81076995    -0.07570
C1231       C  0.24779338  0.02160227  0.85350930     0.13290
C1232       C  0.28434157  0.04074931  0.86753235    -0.21060
C1233       C  0.30394374  0.07284864  0.84470295    -0.07580
C1234       C  0.28681615  0.08356178  0.80531779     0.13280
C1235       C  0.30252033  0.12134783  0.78125612    -0.24410
H1236       H  0.24958528  0.05975953  0.75457475     0.14570
H1237       H  0.29816430  0.02930539  0.89608441     0.14600
C1238       C  0.22390045  0.99462354  0.88354806    -0.24360
H1239       H  0.28659771  0.12450374  0.75073464     0.04810
H1240       H  0.33604250  0.11826706  0.77542547     0.08040
H1241       H  0.29683802  0.15104321  0.79945741     0.08040
H1242       H  0.21160123  0.01503867  0.90898229     0.08020
H1243       H  0.19744523  0.97795002  0.86860881     0.08020
H1244       H  0.24507581  0.97115301  0.89747129     0.04800
C1245       C  0.23956847  0.90314757  0.81511648    -0.21010
C1246       C  0.25096159  0.94457361  0.80150336    -0.07570
C1247       C  0.29296736  0.95365494  0.80201460     0.13290
C1248       C  0.31683776  0.93543176  0.83288858    -0.21060
C1249       C  0.30930020  0.89248979  0.84378002    -0.07580
C1250       C  0.27112184  0.87450247  0.82944832     0.13280
C1251       C  0.26506768  0.82691944  0.82504543    -0.24410
H1252       H  0.20797894  0.89231597  0.81179503     0.14570
H1253       H  0.34578012  0.95085421  0.84080319     0.14600
C1254       C  0.31278264  0.97789878  0.76719039    -0.24360
H1255       H  0.23402326  0.81945883  0.81210947     0.04810
H1256       H  0.28860975  0.81399360  0.80317738     0.08040
H1257       H  0.26833300  0.80989552  0.85484979     0.08040
H1258       H  0.33777153  0.95836446  0.75305641     0.08020
H1259       H  0.29050524  0.98552287  0.74205374     0.08020
H1260       H  0.32510387  0.00785664  0.77910702     0.04800
C1261       C  0.03373915  0.13387341  0.73724583    -0.21010
C1262       C  0.02295495  0.17768313  0.73636015    -0.07570
C1263       C  0.04522728  0.20384912  0.70855586     0.13290
C1264       C  0.07389587  0.18472898  0.68101166    -0.21060
C1265       C  0.07505788  0.13978791  0.67397434    -0.07580
C1266       C  0.05488889  0.11407769  0.70396112     0.13280
C1267       C  0.05304362  0.06606530  0.70161560    -0.24410
H1268       H  0.02152463  0.11388247  0.76172064     0.14570
H1269       H  0.09305507  0.20557824  0.66236084     0.14600
C1270       C  0.03910879  0.25151417  0.70593217    -0.24360
H1271       H  0.02097441  0.05488983  0.70659328     0.04810
H1272       H  0.07236451  0.05285700  0.72697577     0.08040
H1273       H  0.06302543  0.05313727  0.67107324     0.08040
H1274       H  0.01584645  0.26366417  0.72815195     0.08020
H1275       H  0.02874844  0.26010126  0.67403869     0.08020
H1276       H  0.06880007  0.26796880  0.71264076     0.04800
C1277       C  0.94143766  0.13100986  0.72680247    -0.21010
C1278       C  0.94520848  0.17518708  0.73377106    -0.07570
C1279       C  0.91924440  0.20271670  0.71009787     0.13290
C1280       C  0.88934317  0.18451944  0.68332027    -0.21060
C1281       C  0.89253115  0.14126273  0.67082602    -0.07580
C1282       C  0.92301497  0.11607188  0.69032183     0.13280
C1283       C  0.94550342  0.08061241  0.66803218    -0.24410
H1284       H  0.95884362  0.10851959  0.74504372     0.14570
H1285       H  0.86798165  0.20540897  0.66704668     0.14600
C1286       C  0.92284396  0.25080203  0.71096478    -0.24360
H1287       H  0.97664848  0.09239655  0.65933099     0.04810
H1288       H  0.93071752  0.07085663  0.63848889     0.08040
H1289       H  0.94973521  0.05293218  0.68900480     0.08040
H1290       H  0.94518173  0.26260758  0.73437095     0.08020
H1291       H  0.89231134  0.26533169  0.71816180     0.08020
H1292       H  0.93314091  0.26208880  0.68005385     0.04800
C1293       C  0.94358900  0.22840489  0.86157978    -0.21010
C1294       C  0.93916978  0.21671420  0.81951122    -0.07570
C1295       C  0.90102755  0.22946941  0.80180992     0.13290
C1296       C  0.88430205  0.26946183  0.81330256    -0.21060
C1297       C  0.89743962  0.29000252  0.84998674    -0.07580
C1298       C  0.92434931  0.26602022  0.87680265     0.13280
C1299       C  0.93743167  0.28067993  0.91929529    -0.24410
H1300       H  0.96884681  0.21455662  0.87926733     0.14570
H1301       H  0.85759622  0.28186294  0.79682300     0.14600
C1302       C  0.86960666  0.19591325  0.79031213    -0.24360
H1303       H  0.97125969  0.27632680  0.92345993     0.04810
H1304       H  0.92165326  0.26114290  0.94324074     0.08040
H1305       H  0.93111481  0.31499789  0.92365008     0.08040
H1306       H  0.88388613  0.16386630  0.78634293     0.08020
H1307       H  0.85274669  0.20509094  0.76158799     0.08020
H1308       H  0.84658534  0.19309385  0.81583084     0.04800
C1309       C  0.00059779  0.28545229  0.81872356    -0.21010
C1310       C  0.01384799  0.24392638  0.80854067    -0.07570
C1311       C  0.05628408  0.23429770  0.81632551     0.13290
C1312       C  0.08331935  0.26753372  0.82958227    -0.21060
C1313       C  0.06728981  0.30626337  0.84592641    -0.07580
C1314       C  0.02409627  0.31196830  0.84437278     0.13280
C1315       C  0.00193513  0.34312378  0.87262690    -0.24410
H1316       H  0.96949996  0.29520639  0.81119377     0.14570
H1317       H  0.11633677  0.26175420  0.83026792     0.14600
C1318       C  0.07351248  0.18982354  0.81449620    -0.24360
H1319       H  0.96832849  0.33961679  0.86982772     0.04810
H1320       H  0.00692761  0.37649346  0.86516226     0.08040
H1321       H  0.01118381  0.33758458  0.90546957     0.08040
H1322       H  0.09393797  0.18659071  0.78700285     0.08020
H1323       H  0.04872608  0.16547193  0.81415268     0.08020
H1324       H  0.09218925  0.18353337  0.84267213     0.04800
C1325       C  0.68786425  0.20145504  0.07288442    -0.21010
C1326       C  0.71731024  0.18071790  0.04782402    -0.07570
C1327       C  0.72884874  0.13892462  0.05913463     0.13290
C1328       C  0.69814613  0.11420295  0.07821499    -0.21060
C1329       C  0.66492013  0.13417886  0.09928783    -0.07580
C1330       C  0.66747012  0.17893624  0.10412181     0.13280
C1331       C  0.64370917  0.20305849  0.13684526    -0.24410
H1332       H  0.67757591  0.23329519  0.06653101     0.14570
H1333       H  0.69828300  0.08073780  0.07113900     0.14600
C1334       C  0.76808214  0.11842951  0.04322855    -0.24360
H1335       H  0.66642472  0.22101355  0.15585975     0.04810
H1336       H  0.62629073  0.18141178  0.15764982     0.08040
H1337       H  0.62170765  0.22595383  0.12258330     0.08040
H1338       H  0.79500113  0.13512042  0.05721378     0.08020
H1339       H  0.77047807  0.12056917  0.00883034     0.08020
H1340       H  0.76984179  0.08416941  0.05218048     0.04800
C1341       C  0.66257665  0.18694982  0.90608990    -0.21010
C1342       C  0.64769916  0.14472888  0.91136151    -0.07570
C1343       C  0.65754168  0.12342790  0.94821421     0.13290
C1344       C  0.68914717  0.13962598  0.97286618    -0.21060
C1345       C  0.70398295  0.18224609  0.96990128    -0.07580
C1346       C  0.68708069  0.20729847  0.93710577     0.13280
C1347       C  0.68969621  0.25542317  0.93682326    -0.24410
H1348       H  0.65145508  0.20523613  0.87994154     0.14570
H1349       H  0.70100906  0.11734401  0.99469666     0.14600
C1350       C  0.63716554  0.08160237  0.96012440    -0.24360
H1351       H  0.67225707  0.26922784  0.91034588     0.04810
H1352       H  0.72164773  0.26686366  0.93385978     0.08040
H1353       H  0.67565634  0.26838504  0.96571154     0.08040
H1354       H  0.64109857  0.05739604  0.93500009     0.08020
H1355       H  0.60370320  0.08692380  0.96555577     0.08020
H1356       H  0.65030393  0.06816490  0.98927599     0.04800
C1357       C  0.81826331  0.22988304  0.05930495    -0.21010
C1358       C  0.77766659  0.24060230  0.04896605    -0.07570
C1359       C  0.75851599  0.27501863  0.07068934     0.13290
C1360       C  0.78053557  0.29569710  0.10232065    -0.21060
C1361       C  0.82386097  0.29575073  0.09997318    -0.07580
C1362       C  0.84297911  0.26282540  0.07509967     0.13280
C1363       C  0.88351525  0.26739386  0.05234537    -0.24410
H1364       H  0.83297206  0.20431371  0.04166672     0.14570
H1365       H  0.76521039  0.32100865  0.11978484     0.14600
C1366       C  0.72099957  0.29818708  0.05475811    -0.24360
H1367       H  0.87995318  0.26010395  0.01891860     0.04810
H1368       H  0.90564222  0.24240217  0.06193301     0.08040
H1369       H  0.89625840  0.30017302  0.05548044     0.08040
H1370       H  0.69768450  0.30102812  0.07999066     0.08020
H1371       H  0.70701346  0.28267761  0.02723726     0.08020
H1372       H  0.73023939  0.33068209  0.04481145     0.04800
C1373       C  0.81348810  0.28343496  0.98204626    -0.21010
C1374       C  0.78929874  0.24725083  0.97078529    -0.07570
C1375       C  0.79515293  0.23291628  0.92880231     0.13290
C1376       C  0.81460852  0.26083535  0.89973339    -0.21060
C1377       C  0.83794822  0.29633177  0.91372340    -0.07580
C1378       C  0.84405854  0.30084297  0.95675793     0.13280
C1379       C  0.87277987  0.33504551  0.97501483    -0.24410
H1380       H  0.80939502  0.29928347  0.01132983     0.14570
H1381       H  0.81222612  0.25441273  0.86663207     0.14600
C1382       C  0.78376746  0.18917996  0.91362328    -0.24360
H1383       H  0.90078238  0.32037470  0.98847168     0.04810
H1384       H  0.85748498  0.35406710  0.99941514     0.08040
H1385       H  0.88402306  0.35853905  0.95200862     0.08040
H1386       H  0.75866703  0.19180843  0.89023043     0.08020
H1387       H  0.77516380  0.16765989  0.93938609     0.08020
H1388       H  0.81105256  0.17423954  0.89834597     0.04800
C1389       C  0.19757838  0.69305389  0.05922770    -0.21010
C1390       C  0.17274447  0.72638914  0.04388103    -0.07570
C1391       C  0.13537059  0.73493820  0.06536464     0.13290
C1392       C  0.11846065  0.70173287  0.08952798    -0.21060
C1393       C  0.14452516  0.66919426  0.10505617    -0.07580
C1394       C  0.18710211  0.67358910  0.09680276     0.13280
C1395       C  0.22030159  0.65563290  0.12508416    -0.24410
H1396       H  0.22726374  0.68624363  0.04540091     0.14570
H1397       H  0.08602286  0.70235663  0.09738236     0.14600
C1398       C  0.11552787  0.77851919  0.06661258    -0.24360
H1399       H  0.25145460  0.66005937  0.11133685     0.04810
H1400       H  0.21583294  0.62129688  0.13217247     0.08040
H1401       H  0.22028475  0.67339283  0.15501740     0.08040
H1402       H  0.08253577  0.77690143  0.05728721     0.08020
H1403       H  0.13226516  0.80166350  0.04667271     0.08020
H1404       H  0.11664675  0.79088668  0.09908460     0.04800
C1405       C  0.11536193  0.67325753  0.94348969    -0.21010
C1406       C  0.13933876  0.65731788  0.91089123    -0.07570
C1407       C  0.17931999  0.67528164  0.90496476     0.13290
C1408       C  0.19458587  0.70570442  0.93415629    -0.21060
C1409       C  0.16856165  0.72371263  0.96507545    -0.07580
C1410       C  0.12662426  0.71064578  0.96429452     0.13280
C1411       C  0.09201254  0.73802940  0.98015447    -0.24410
H1412       H  0.08576940  0.65869540  0.95038480     0.14570
H1413       H  0.22693245  0.71398594  0.93287856     0.14600
C1414       C  0.20715181  0.66134092  0.86980159    -0.24360
H1415       H  0.07655033  0.72240649  0.00687149     0.04810
H1416       H  0.06855994  0.74199793  0.95532810     0.08040
H1417       H  0.10302548  0.77069495  0.98739800     0.08040
H1418       H  0.19216967  0.63757246  0.84893836     0.08020
H1419       H  0.23590466  0.64700028  0.88254015     0.08020
H1420       H  0.21547760  0.68958824  0.85073335     0.04800
C1421       C  0.25073579  0.77742865  0.07505401    -0.21010
C1422       C  0.23144211  0.80019337  0.04243339    -0.07570
C1423       C  0.24345883  0.84319061  0.03815630     0.13290
C1424       C  0.28319807  0.85520481  0.05112353    -0.21060
C1425       C  0.30311411  0.83185505  0.08261857    -0.07580
C1426       C  0.28470291  0.79379283  0.09680198     0.13280
C1427       C  0.30195316  0.76766975  0.13226257    -0.24410
H1428       H  0.24270546  0.74580352  0.08300147     0.14570
H1429       H  0.29605982  0.88543449  0.04102592     0.14600
C1430       C  0.21237307  0.87660638  0.02552619    -0.24360
H1431       H  0.27807777  0.76446008  0.15688227     0.04810
H1432       H  0.32982680  0.78197091  0.14669829     0.08040
H1433       H  0.31023733  0.73525007  0.12061520     0.08040
H1434       H  0.18606199  0.87559447  0.04756764     0.08020
H1435       H  0.19911866  0.87092189  0.99454318     0.08020
H1436       H  0.22593824  0.90923128  0.02645085     0.04800
C1437       C  0.23573407  0.82186188  0.94090599    -0.21010
C1438       C  0.24352557  0.78626858  0.96657514    -0.07570
C1439       C  0.28507382  0.77386950  0.97148161     0.13290
C1440       C  0.31638022  0.80024504  0.95685675    -0.21060
C1441       C  0.31000169  0.83150369  0.92579749    -0.07580
C1442       C  0.26871992  0.84730684  0.92525109     0.13280
C1443       C  0.26015376  0.89421525  0.92245304    -0.24410
H1444       H  0.20435032  0.83367703  0.93855147     0.14570
H1445       H  0.34598343  0.79616345  0.97157117     0.14600
C1446       C  0.29771336  0.73409096  0.99457513    -0.24360
H1447       H  0.24829609  0.90614432  0.95268760     0.04810
H1448       H  0.23578242  0.90005936  0.89895104     0.08040
H1449       H  0.28854849  0.91300549  0.91670369     0.08040
H1450       H  0.27087315  0.71376127  0.00167991     0.08020
H1451       H  0.31410334  0.74254804  0.02379682     0.08020
H1452       H  0.31877253  0.71470254  0.97469008     0.04800
C1453       C  0.14849400  0.55294335  0.71243804    -0.21010
C1454       C  0.15786720  0.56490951  0.67083716    -0.07570
C1455       C  0.19745039  0.55063634  0.65537575     0.13290
C1456       C  0.22449013  0.52885717  0.68208060    -0.21060
C1457       C  0.21022996  0.50974086  0.71843390    -0.07580
C1458       C  0.17238467  0.52363967  0.73497649     0.13280
C1459       C  0.15592837  0.50804211  0.77590984    -0.24410
H1460       H  0.12035786  0.56341023  0.72710534     0.14570
H1461       H  0.25484338  0.51958785  0.67074876     0.14600
C1462       C  0.20953060  0.54584178  0.61034183    -0.24360
H1463       H  0.15081778  0.53567981  0.79720615     0.04810
H1464       H  0.17764609  0.48599564  0.79122954     0.08040
H1465       H  0.12610885  0.49120265  0.77090570     0.08040
H1466       H  0.22981651  0.57213079  0.60023012     0.08020
H1467       H  0.18195252  0.54093708  0.59099215     0.08020
H1468       H  0.22854993  0.51669841  0.60487816     0.04800
C1469       C  0.15991591  0.37830792  0.69835189    -0.21010
C1470       C  0.15793954  0.38681104  0.65540999    -0.07570
C1471       C  0.18625731  0.41613431  0.63850797     0.13290
C1472       C  0.21793424  0.43236282  0.66344587    -0.21060
C1473       C  0.21473308  0.43082115  0.70696709    -0.07580
C1474       C  0.18560569  0.40244429  0.72469487     0.13280
C1475       C  0.17961661  0.39789418  0.77092288    -0.24410
H1476       H  0.13818062  0.35613895  0.71208986     0.14570
H1477       H  0.24058234  0.45302730  0.64925104     0.14600
C1478       C  0.17883056  0.43841106  0.59802404    -0.24360
H1479       H  0.14830840  0.40939037  0.77953112     0.04810
H1480       H  0.20265671  0.41617440  0.78895736     0.08040
H1481       H  0.18254702  0.36376412  0.77990722     0.08040
H1482       H  0.14984816  0.42893893  0.58294875     0.08020
H1483       H  0.20570057  0.43432467  0.57689513     0.08020
H1484       H  0.17350245  0.47239493  0.60477233     0.04800
C1485       C  0.33555157  0.44446551  0.77541493    -0.21010
C1486       C  0.29650603  0.43202986  0.75981798    -0.07570
C1487       C  0.28498926  0.38912338  0.76815770     0.13290
C1488       C  0.29949637  0.36974961  0.80491965    -0.21060
C1489       C  0.33260622  0.38792147  0.82710775    -0.07580
C1490       C  0.35312248  0.42366576  0.80995557     0.13280
C1491       C  0.39241525  0.44086235  0.82884308    -0.24410
H1492       H  0.34847396  0.47480518  0.76569172     0.14570
H1493       H  0.28824156  0.33841244  0.81372648     0.14600
C1494       C  0.27312423  0.35893498  0.73354066    -0.24360
H1495       H  0.40455924  0.46849137  0.81100167     0.04810
H1496       H  0.41645944  0.41543929  0.82891438     0.08040
H1497       H  0.38674463  0.45183550  0.86121286     0.08040
H1498       H  0.27259873  0.37499331  0.70287298     0.08020
H1499       H  0.24321846  0.34324975  0.74021414     0.08020
H1500       H  0.29684730  0.33327375  0.73083005     0.04800
C1501       C  0.28349072  0.54731414  0.76881747    -0.21010
C1502       C  0.27194287  0.50623437  0.78308548    -0.07570
C1503       C  0.27513548  0.49802536  0.82571972     0.13290
C1504       C  0.30250706  0.52235114  0.84843345    -0.21060
C1505       C  0.31502520  0.56372395  0.83584097    -0.07580
C1506       C  0.29952078  0.57815671  0.79693380     0.13280
C1507       C  0.29712138  0.62451108  0.78494871    -0.24410
H1508       H  0.27958860  0.55589894  0.73653250     0.14570
H1509       H  0.31226662  0.50818327  0.87710072     0.14600
C1510       C  0.25084799  0.46363865  0.84780637    -0.24360
H1511       H  0.26488876  0.63225840  0.77561649     0.04810
H1512       H  0.31779673  0.63092485  0.75813537     0.08040
H1513       H  0.30458887  0.64601601  0.81141127     0.08040
H1514       H  0.25632567  0.43176365  0.83459372     0.08020
H1515       H  0.21743204  0.47098309  0.84597246     0.08020
H1516       H  0.25870886  0.46199660  0.88146686     0.04800
C1517       C  0.39387051  0.16449831  0.70227486    -0.21010
C1518       C  0.39485697  0.15877344  0.65905562    -0.07570
C1519       C  0.42290473  0.18270025  0.63532082     0.13290
C1520       C  0.44711473  0.21361200  0.65546135    -0.21060
C1521       C  0.45047206  0.21584252  0.69938694    -0.07580
C1522       C  0.42224549  0.19080005  0.72311068     0.13280
C1523       C  0.42120991  0.18893651  0.76988087    -0.24410
H1524       H  0.37235742  0.14551704  0.72012282     0.14570
H1525       H  0.46565872  0.23403835  0.63612159     0.14600
C1526       C  0.42938282  0.17548023  0.58928177    -0.24360
H1527       H  0.40606438  0.15924473  0.78106857     0.04810
H1528       H  0.40244523  0.21588520  0.78206842     0.08040
H1529       H  0.45250292  0.18852009  0.78317623     0.08040
H1530       H  0.40952842  0.14994353  0.57614767     0.08020
H1531       H  0.46201176  0.16597476  0.58368755     0.08020
H1532       H  0.42280504  0.20550506  0.57214728     0.04800
C1533       C  0.57673971  0.15665187  0.70299815    -0.21010
C1534       C  0.58193451  0.15799173  0.65945886    -0.07570
C1535       C  0.56321079  0.19217419  0.63775619     0.13290
C1536       C  0.54118842  0.22358504  0.66009520    -0.21060
C1537       C  0.52839037  0.21597856  0.70114664    -0.07580
C1538       C  0.54704792  0.18172215  0.72301670     0.13280
C1539       C  0.53730587  0.17098827  0.76766597    -0.24410
H1540       H  0.59271462  0.13267053  0.72111913     0.14570
H1541       H  0.52953132  0.25134368  0.64375544     0.14600
C1542       C  0.56401397  0.19609151  0.59143887    -0.24360
H1543       H  0.52062220  0.13999772  0.76906425     0.04810
H1544       H  0.51888314  0.19619190  0.78298340     0.08040
H1545       H  0.56644232  0.16823492  0.78585214     0.08040
H1546       H  0.58081369  0.16945071  0.57612219     0.08020
H1547       H  0.57879543  0.22706837  0.58381480     0.08020
H1548       H  0.53193840  0.19629809  0.57914988     0.04800
C1549       C  0.56287915  0.27564142  0.77048186    -0.21010
C1550       C  0.52739520  0.29704838  0.75572179    -0.07570
C1551       C  0.52115573  0.33936470  0.77057801     0.13290
C1552       C  0.53939677  0.35204800  0.80810034    -0.21060
C1553       C  0.57202924  0.32843120  0.82511356    -0.07580
C1554       C  0.58547601  0.29097852  0.80462861     0.13280
C1555       C  0.62208797  0.26518313  0.81898396    -0.24410
H1556       H  0.57319713  0.24622057  0.75733509     0.14570
H1557       H  0.53071024  0.38240763  0.82216255     0.14600
C1558       C  0.49454755  0.37103390  0.74779594    -0.24360
H1559       H  0.64508675  0.26282423  0.79341501     0.04810
H1560       H  0.61152553  0.23249406  0.82708097     0.08040
H1561       H  0.63771813  0.27938987  0.84639470     0.08040
H1562       H  0.46749628  0.38021979  0.76715981     0.08020
H1563       H  0.48403839  0.35795863  0.71742535     0.08020
H1564       H  0.51294088  0.40019358  0.74117919     0.04800
C1565       C  0.45857604  0.27051720  0.81020605    -0.21010
C1566       C  0.45327482  0.28192804  0.76877053    -0.07570
C1567       C  0.41830074  0.30622415  0.75782398     0.13290
C1568       C  0.39252503  0.32247734  0.78977851    -0.21060
C1569       C  0.39856420  0.31262897  0.83275029    -0.07580
C1570       C  0.42946842  0.28047148  0.84048447     0.13280
C1571       C  0.42924317  0.24935844  0.87605973    -0.24410
H1572       H  0.48482717  0.25067021  0.81861265     0.14570
H1573       H  0.36822451  0.34257109  0.77911792     0.14600
C1574       C  0.40834398  0.31717770  0.71327472    -0.24360
H1575       H  0.44297562  0.21799917  0.86692752     0.04810
H1576       H  0.39723130  0.24130582  0.88433453     0.08040
H1577       H  0.44828966  0.26130833  0.90221149     0.08040
H1578       H  0.37762964  0.30379381  0.70495760     0.08020
H1579       H  0.43142931  0.30411929  0.69107640     0.08020
H1580       H  0.40727020  0.35248209  0.70957832     0.04800
C1581       C  0.61762540  0.44070924  0.23818290    -0.21010
C1582       C  0.65680560  0.43584857  0.25790665    -0.07570
C1583       C  0.67617674  0.39607188  0.24914922     0.13290
C1584       C  0.66936770  0.37599906  0.20999627    -0.21060
C1585       C  0.63507106  0.38681275  0.18482951    -0.07580
C1586       C  0.60750173  0.41809443  0.20091723     0.13280
C1587       C  0.56998569  0.43129302  0.17624732    -0.24410
H1588       H  0.59863311  0.46793715  0.24690178     0.14570
H1589       H  0.69005160  0.35061707  0.20029568     0.14600
C1590       C  0.69112082  0.36784147  0.28394635    -0.24360
H1591       H  0.55155233  0.45608514  0.19284998     0.04810
H1592       H  0.54985809  0.40325403  0.17033030     0.08040
H1593       H  0.57978994  0.44460663  0.14582326     0.08040
H1594       H  0.68898811  0.38392853  0.31462337     0.08020
H1595       H  0.72274466  0.35576549  0.27764184     0.08020
H1596       H  0.67061078  0.33982509  0.28707190     0.04800
C1597       C  0.63840759  0.52609325  0.17643945    -0.21010
C1598       C  0.63635821  0.57069595  0.18141534    -0.07570
C1599       C  0.64906332  0.58749645  0.22109266     0.13290
C1600       C  0.66058147  0.55787525  0.25308434    -0.21060
C1601       C  0.66951848  0.51494163  0.24187458    -0.07580
C1602       C  0.66748349  0.50490568  0.20001509     0.13280
C1603       C  0.70322106  0.48145496  0.18060674    -0.24410
H1604       H  0.62805741  0.51112802  0.14771619     0.14570
H1605       H  0.66521382  0.56864322  0.28485265     0.14600
C1606       C  0.65324060  0.63471409  0.22915477    -0.24360
H1607       H  0.70687032  0.48759535  0.14738224     0.04810
H1608       H  0.70037848  0.44697503  0.18521572     0.08040
H1609       H  0.73248903  0.49287508  0.19426279     0.08040
H1610       H  0.62265832  0.65044137  0.23035811     0.08020
H1611       H  0.67236927  0.64945423  0.20438189     0.08020
H1612       H  0.66860381  0.64089491  0.25956418     0.04800
C1613       C  0.76185781  0.54534523  0.27472549    -0.21010
C1614       C  0.73673194  0.52430033  0.30393010    -0.07570
C1615       C  0.73981637  0.53823986  0.34578806     0.13290
C1616       C  0.77457160  0.56166337  0.35867980    -0.21060
C1617       C  0.80083816  0.58265915  0.33012913    -0.07580
C1618       C  0.79152493  0.57626542  0.28708716     0.13280
C1619       C  0.81378844  0.59990293  0.25324703    -0.24410
H1620       H  0.75901348  0.53742271  0.24209420     0.14570
H1621       H  0.78074655  0.56227682  0.39160926     0.14600
C1622       C  0.70647082  0.52987837  0.37746749    -0.24360
H1623       H  0.79077434  0.61627261  0.23315317     0.04810
H1624       H  0.83164225  0.57684611  0.23409555     0.08040
H1625       H  0.83518509  0.62447690  0.26565686     0.08040
H1626       H  0.67998387  0.51214266  0.36378699     0.08020
H1627       H  0.69409503  0.56045439  0.38939069     0.08020
H1628       H  0.71924697  0.51262791  0.40475169     0.04800
C1629       C  0.74086211  0.43830818  0.35251720    -0.21010
C1630       C  0.74017603  0.44449978  0.30931970    -0.07570
C1631       C  0.77067248  0.42302337  0.28513926     0.13290
C1632       C  0.79756066  0.39447840  0.30496583    -0.21060
C1633       C  0.80369027  0.39722572  0.34812623    -0.07580
C1634       C  0.77689531  0.42362371  0.37152753     0.13280
C1635       C  0.78908181  0.44489830  0.41189981    -0.24410
H1636       H  0.71663036  0.45099818  0.37169205     0.14570
H1637       H  0.81909951  0.37587149  0.28651143     0.14600
C1638       C  0.77712104  0.43081081  0.23952993    -0.24360
H1639       H  0.76555972  0.43856620  0.43625442     0.04810
H1640       H  0.79044419  0.48003762  0.40719446     0.08040
H1641       H  0.82029343  0.43519056  0.42264221     0.08040
H1642       H  0.75007503  0.41972785  0.22185709     0.08020
H1643       H  0.80414052  0.41277380  0.22718693     0.08020
H1644       H  0.78335710  0.46514606  0.23424296     0.04800
C1645       C  0.56532678  0.68184753  0.16929285    -0.21010
C1646       C  0.56984015  0.63719262  0.17056442    -0.07570
C1647       C  0.54860588  0.61419422  0.20182295     0.13290
C1648       C  0.52702079  0.63717793  0.23261519    -0.21060
C1649       C  0.51690148  0.68056776  0.22667904    -0.07580
C1650       C  0.53551084  0.70262778  0.19321261     0.13280
C1651       C  0.52233076  0.74677394  0.17991453    -0.24410
H1652       H  0.58198216  0.70011480  0.14623610     0.14570
H1653       H  0.51386050  0.61986913  0.25845683     0.14600
C1654       C  0.54414821  0.56622512  0.20146031    -0.24360
H1655       H  0.54344225  0.76034150  0.15620064     0.04810
H1656       H  0.52179021  0.76928862  0.20638068     0.08040
H1657       H  0.49143947  0.74478649  0.16540530     0.08040
H1658       H  0.56005251  0.55232716  0.22894175     0.08020
H1659       H  0.55628044  0.55147416  0.17250022     0.08020
H1660       H  0.51085396  0.55775876  0.20291180     0.04800
C1661       C  0.43176836  0.63998468  0.23329512    -0.21010
C1662       C  0.43987207  0.68413819  0.23058696    -0.07570
C1663       C  0.41521861  0.70913915  0.20346564     0.13290
C1664       C  0.38735909  0.68832293  0.17684348    -0.21060
C1665       C  0.38571486  0.64338193  0.17411711    -0.07580
C1666       C  0.40826111  0.61882365  0.20296414     0.13280
C1667       C  0.41113051  0.57082591  0.19968845    -0.24410
H1668       H  0.44743601  0.62110983  0.25655987     0.14570
H1669       H  0.36963366  0.70728304  0.15504167     0.14600
C1670       C  0.41780096  0.75717613  0.20026785    -0.24360
H1671       H  0.43295578  0.55733552  0.22294263     0.04810
H1672       H  0.42236215  0.56157359  0.16822249     0.08040
H1673       H  0.38072523  0.55608278  0.20539347     0.08040
H1674       H  0.44356142  0.77095899  0.21840380     0.08020
H1675       H  0.38842291  0.77154514  0.21151258     0.08020
H1676       H  0.42219528  0.76661890  0.16724461     0.04800
C1677       C  0.40687019  0.74042064  0.30431787    -0.21010
C1678       C  0.44812054  0.75363523  0.29681828    -0.07570
C1679       C  0.45845350  0.79500820  0.31006703     0.13290
C1680       C  0.43788534  0.81143615  0.34399048    -0.21060
C1681       C  0.39526967  0.80428701  0.34746738    -0.07580
C1682       C  0.37876474  0.76911943  0.32422421     0.13280
C1683       C  0.33313992  0.76160751  0.31914949    -0.24410
H1684       H  0.39590365  0.70971371  0.29338881     0.14570
H1685       H  0.45329479  0.83609604  0.36166907     0.14600
C1686       C  0.48847241  0.82335811  0.28761896    -0.24360
H1687       H  0.32521911  0.76163977  0.28547080     0.04810
H1688       H  0.31436579  0.78680836  0.33457387     0.08040
H1689       H  0.32477225  0.73004652  0.33243417     0.08040
H1690       H  0.50152809  0.80778486  0.25971924     0.08020
H1691       H  0.51359799  0.83308971  0.30860089     0.08020
H1692       H  0.47215144  0.85270586  0.27710014     0.04800
C1693       C  0.55913142  0.74890773  0.28673402    -0.21010
C1694       C  0.52354605  0.73246911  0.30642985    -0.07570
C1695       C  0.52042183  0.73904798  0.35004151     0.13290
C1696       C  0.54267014  0.77254114  0.36858466    -0.21060
C1697       C  0.57481019  0.79324064  0.34737673    -0.07580
C1698       C  0.58508433  0.77870628  0.30688623     0.13280
C1699       C  0.62091580  0.79673633  0.28271227    -0.24410
H1700       H  0.56529557  0.74244390  0.25457628     0.14570
H1701       H  0.53251282  0.78433295  0.39862093     0.14600
C1702       C  0.48946125  0.71525476  0.37619126    -0.24360
H1703       H  0.64183520  0.77026352  0.27307159     0.04810
H1704       H  0.63940204  0.81990889  0.30112445     0.08040
H1705       H  0.60924523  0.81316463  0.25441314     0.08040
H1706       H  0.47343259  0.68993296  0.35798205     0.08020
H1707       H  0.46604385  0.73774573  0.38902458     0.08020
H1708       H  0.50576005  0.69957068  0.40249636     0.04800
C1709       C  0.17028555  0.68864322  0.40218875    -0.21010
C1710       C  0.16478904  0.64488288  0.39509730    -0.07570
C1711       C  0.19051552  0.61549346  0.41668569     0.13290
C1712       C  0.22482184  0.63143947  0.43896862    -0.21060
C1713       C  0.22292459  0.67369543  0.45460554    -0.07580
C1714       C  0.19340880  0.70209153  0.43658297     0.13280
C1715       C  0.17814015  0.74231127  0.45730542    -0.24410
H1716       H  0.14894880  0.71098693  0.38771576     0.14570
H1717       H  0.24565488  0.60900845  0.45390673     0.14600
C1718       C  0.17887548  0.56887017  0.42099241    -0.24360
H1719       H  0.14425107  0.73986896  0.46196036     0.04810
H1720       H  0.18477376  0.77050567  0.43749509     0.08040
H1721       H  0.19084165  0.74675833  0.48866670     0.08040
H1722       H  0.17621314  0.55246576  0.39052964     0.08020
H1723       H  0.14846553  0.56666991  0.43682591     0.08020
H1724       H  0.20181593  0.55110725  0.44005615     0.04800
C1725       C  0.18674291  0.63077870  0.52226164    -0.21010
C1726       C  0.22116679  0.65643466  0.53297831    -0.07570
C1727       C  0.23089853  0.65770115  0.57650422     0.13290
C1728       C  0.19934110  0.64742737  0.60549476    -0.21060
C1729       C  0.16548653  0.62254252  0.59229877    -0.07580
C1730       C  0.16447365  0.60805635  0.55079131     0.13280
C1731       C  0.13446395  0.57448038  0.53453303    -0.24410
H1732       H  0.17313777  0.62974298  0.49204765     0.14570
H1733       H  0.20313502  0.65461046  0.63833572     0.14600
C1734       C  0.27417256  0.66082394  0.59322930    -0.24360
H1735       H  0.11239530  0.58880862  0.51199651     0.04810
H1736       H  0.11654202  0.55903640  0.55975463     0.08040
H1737       H  0.15213768  0.54894213  0.51818544     0.08040
H1738       H  0.27791291  0.69014696  0.61247356     0.08020
H1739       H  0.29742982  0.65902205  0.56795142     0.08020
H1740       H  0.28048454  0.63288852  0.61355902     0.04800
C1741       C  0.33191970  0.73845759  0.53703769    -0.21010
C1742       C  0.28864825  0.73403468  0.53919751    -0.07570
C1743       C  0.26690823  0.76249078  0.56631437     0.13290
C1744       C  0.28892500  0.79456790  0.58790957    -0.21060
C1745       C  0.33065072  0.80295398  0.57949445    -0.07580
C1746       C  0.35143943  0.77564651  0.55134115     0.13280
C1747       C  0.39070518  0.78798426  0.52963914    -0.24410
H1748       H  0.34917819  0.71770754  0.51630305     0.14570
H1749       H  0.27255617  0.81584703  0.60862577     0.14600
C1750       C  0.22072603  0.76223764  0.57194178    -0.24360
H1751       H  0.41479459  0.76353800  0.53557682     0.04810
H1752       H  0.40139497  0.82031635  0.53846305     0.08040
H1753       H  0.38508028  0.78891455  0.49551064     0.08040
H1754       H  0.21330156  0.75798483  0.60544410     0.08020
H1755       H  0.20534685  0.73634168  0.55464406     0.08020
H1756       H  0.20755500  0.79321436  0.56138091     0.04800
C1757       C  0.26747961  0.78199082  0.46485753    -0.21010
C1758       C  0.28127346  0.74012210  0.46305092    -0.07570
C1759       C  0.31579149  0.73034400  0.43784214     0.13290
C1760       C  0.33721749  0.76392967  0.41784831    -0.21060
C1761       C  0.32525342  0.80731661  0.42266328    -0.07580
C1762       C  0.29207069  0.81524612  0.45155186     0.13280
C1763       C  0.28877220  0.85375286  0.47995889    -0.24410
H1764       H  0.24261184  0.78968662  0.48610070     0.14570
H1765       H  0.36481354  0.75570548  0.40115245     0.14600
C1766       C  0.33021783  0.68477975  0.43252999    -0.24360
H1767       H  0.27287781  0.84683541  0.50989353     0.04810
H1768       H  0.27006400  0.87928810  0.46568064     0.08040
H1769       H  0.32000515  0.86299160  0.49012176     0.08040
H1770       H  0.30551713  0.66578416  0.41721900     0.08020
H1771       H  0.33747122  0.67016451  0.46308052     0.08020
H1772       H  0.35828934  0.68273138  0.41270287     0.04800
C1773       C  0.68990052  0.13023682  0.56367209    -0.21010
C1774       C  0.66222407  0.14504778  0.59514446    -0.07570
C1775       C  0.66397422  0.18961371  0.60322638     0.13290
C1776       C  0.67819756  0.21699352  0.57142489    -0.21060
C1777       C  0.70112861  0.20095726  0.53721208    -0.07580
C1778       C  0.71078807  0.15723791  0.53683075     0.13280
C1779       C  0.74108077  0.13705340  0.50690573    -0.24410
H1780       H  0.69556387  0.09697841  0.55764846     0.14570
H1781       H  0.67044335  0.25046281  0.57361226     0.14600
C1782       C  0.65976384  0.20835210  0.64621091    -0.24360
H1783       H  0.76449723  0.11850192  0.52462340     0.04810
H1784       H  0.75805695  0.16094422  0.48869709     0.08040
H1785       H  0.72460590  0.11506464  0.48526266     0.08040
H1786       H  0.65597356  0.18324895  0.67013832     0.08020
H1787       H  0.63437350  0.23219113  0.64745225     0.08020
H1788       H  0.68880929  0.22520071  0.65443200     0.04800
C1789       C  0.61965519  0.17125769  0.44852896    -0.21010
C1790       C  0.63599570  0.15336919  0.41187549    -0.07570
C1791       C  0.67656643  0.16455617  0.40092969     0.13290
C1792       C  0.70010086  0.18888104  0.42888554    -0.21060
C1793       C  0.68201723  0.21176893  0.46204187    -0.07580
C1794       C  0.63931089  0.20579919  0.46813495     0.13280
C1795       C  0.61447251  0.23358484  0.49677020    -0.24410
H1796       H  0.59072644  0.15981992  0.46112888     0.14570
H1797       H  0.73253542  0.18363399  0.42752952     0.14600
C1798       C  0.69818973  0.14515087  0.36423193    -0.24360
H1799       H  0.58783463  0.24744258  0.47964037     0.04810
H1800       H  0.63273629  0.26056524  0.50969930     0.08040
H1801       H  0.60279008  0.21335522  0.52192274     0.08040
H1802       H  0.67688953  0.12840610  0.34254313     0.08020
H1803       H  0.72113573  0.12195776  0.37633085     0.08020
H1804       H  0.71406795  0.17064140  0.34636939     0.04800
C1805       C  0.77119498  0.26296824  0.42383833    -0.21010
C1806       C  0.75021773  0.28199119  0.45787181    -0.07570
C1807       C  0.75498342  0.32662015  0.46321130     0.13290
C1808       C  0.78694537  0.34752820  0.44226497    -0.21060
C1809       C  0.80760104  0.32840868  0.40860655    -0.07580
C1810       C  0.79689172  0.28633563  0.39732090     0.13280
C1811       C  0.81518212  0.26375130  0.35995023    -0.24410
H1812       H  0.77357769  0.22935483  0.42014755     0.14570
H1813       H  0.79748352  0.37751291  0.45469734     0.14600
C1814       C  0.72949120  0.35206939  0.49379559    -0.24360
H1815       H  0.78983673  0.25129004  0.33995671     0.04810
H1816       H  0.83459170  0.23642336  0.37026867     0.08040
H1817       H  0.83422167  0.28528318  0.34050955     0.08040
H1818       H  0.74947072  0.36453945  0.51924776     0.08020
H1819       H  0.70409890  0.33273015  0.50723534     0.08020
H1820       H  0.71500859  0.37955012  0.47747375     0.04800
C1821       C  0.75213098  0.28725838  0.56759274    -0.21010
C1822       C  0.76671208  0.26472843  0.53240867    -0.07570
C1823       C  0.80936585  0.25701840  0.52933801     0.13290
C1824       C  0.83590844  0.27855381  0.55609793    -0.21060
C1825       C  0.82200189  0.30507043  0.58949195    -0.07580
C1826       C  0.77926930  0.30207695  0.59872908     0.13280
C1827       C  0.76236540  0.30378877  0.64222277    -0.24410
H1828       H  0.71971861  0.29387055  0.57121922     0.14570
H1829       H  0.86810308  0.27366042  0.54932716     0.14600
C1830       C  0.82875500  0.22761843  0.49741624    -0.24360
H1831       H  0.74449124  0.27422386  0.64834269     0.04810
H1832       H  0.74116328  0.33146034  0.64619985     0.08040
H1833       H  0.78749064  0.30370747  0.66560770     0.08040
H1834       H  0.84816286  0.24642984  0.47563763     0.08020
H1835       H  0.80577429  0.20944622  0.47938595     0.08020
H1836       H  0.84864139  0.20374590  0.51341686     0.04800
C1837       C  0.26921454  0.90480429  0.13240209    -0.21010
C1838       C  0.30063101  0.88531043  0.15615840    -0.07570
C1839       C  0.29282353  0.88324539  0.20000589     0.13290
C1840       C  0.26524565  0.91344542  0.21789614    -0.21060
C1841       C  0.23656326  0.93459730  0.19219970    -0.07580
C1842       C  0.23326301  0.91964125  0.15141009     0.13280
C1843       C  0.19170542  0.91192475  0.13162169    -0.24410
H1844       H  0.27260045  0.91171039  0.10012132     0.14570
H1845       H  0.26564793  0.91955244  0.25114132     0.14600
C1846       C  0.31215458  0.84995661  0.22765563    -0.24360
H1847       H  0.18659745  0.87686872  0.12913925     0.04810
H1848       H  0.18982341  0.92514662  0.09988175     0.08040
H1849       H  0.16632062  0.92569286  0.15077414     0.08040
H1850       H  0.32975961  0.86541702  0.25314375     0.08020
H1851       H  0.33295666  0.82825728  0.20997405     0.08020
H1852       H  0.28737854  0.83020011  0.24172917     0.04800
C1853       C  0.17631096  0.05856461  0.25422700    -0.21010
C1854       C  0.15942414  0.01881176  0.24276778    -0.07570
C1855       C  0.11975146  0.01056243  0.25916985     0.13290
C1856       C  0.10816924  0.02872661  0.29782692    -0.21060
C1857       C  0.13029210  0.06346880  0.31482167    -0.07580
C1858       C  0.16216085  0.08107459  0.28977898     0.13280
C1859       C  0.18339729  0.12224465  0.30025781    -0.24410
H1860       H  0.20042558  0.07274034  0.23628072     0.14570
H1861       H  0.08102010  0.01689579  0.31374696     0.14600
C1862       C  0.08983389  0.98402873  0.23434795    -0.24360
H1863       H  0.17622696  0.14637540  0.27601411     0.04810
H1864       H  0.21718545  0.11650744  0.30032741     0.08040
H1865       H  0.17426696  0.13503288  0.33108096     0.08040
H1866       H  0.10204544  0.95136235  0.22881752     0.08020
H1867       H  0.08493287  0.99933841  0.20358622     0.08020
H1868       H  0.05924089  0.98241214  0.24990886     0.04800
C1869       C  0.26400439  0.04136849  0.21041191    -0.21010
C1870       C  0.23961998  0.01493659  0.18460902    -0.07570
C1871       C  0.24822086  0.01633518  0.14149372     0.13290
C1872       C  0.28592366  0.03297163  0.12802510    -0.21060
C1873       C  0.30604549  0.06417625  0.15171037    -0.07580
C1874       C  0.29227456  0.07063635  0.19328910     0.13280
C1875       C  0.30825984  0.10601057  0.22081696    -0.24410
H1876       H  0.26065974  0.04005280  0.24389646     0.14570
H1877       H  0.29766630  0.02419366  0.09754398     0.14600
C1878       C  0.21685352  0.00532112  0.10899975    -0.24360
H1879       H  0.32332144  0.09193763  0.24862993     0.04810
H1880       H  0.28196737  0.12626713  0.23131435     0.08040
H1881       H  0.33060261  0.12693225  0.20447949     0.08040
H1882       H  0.21032122  0.03406420  0.09037928     0.08020
H1883       H  0.18703937  0.99582529  0.12315502     0.08020
H1884       H  0.22941467  0.98073560  0.08742155     0.04800
C1885       C  0.16906775  0.90182210  0.25317749    -0.21010
C1886       C  0.18157485  0.94398539  0.26268910    -0.07570
C1887       C  0.18495642  0.95532041  0.30449006     0.13290
C1888       C  0.16059304  0.93404910  0.33285353    -0.21060
C1889       C  0.15119994  0.89039819  0.32650068    -0.07580
C1890       C  0.15960784  0.87315812  0.28597411     0.13280
C1891       C  0.16248575  0.82601964  0.27682988    -0.24410
H1892       H  0.16911611  0.89059743  0.22123563     0.14570
H1893       H  0.15431068  0.94997917  0.36215807     0.14600
C1894       C  0.21655668  0.98707629  0.31930673    -0.24360
H1895       H  0.13785857  0.81646680  0.25453179     0.04810
H1896       H  0.16051612  0.80656827  0.30552936     0.08040
H1897       H  0.19300455  0.81883543  0.26253525     0.08040
H1898       H  0.20162067  0.01723602  0.32776801     0.08020
H1899       H  0.23984112  0.99358362  0.29489153     0.08020
H1900       H  0.23351423  0.97406329  0.34654465     0.04800
C1901       C  0.00308651  0.27980198  0.16348432    -0.21010
C1902       C  0.01527007  0.24072612  0.18186438    -0.07570
C1903       C  0.05724415  0.22840043  0.17394202     0.13290
C1904       C  0.08573150  0.26062612  0.16195369    -0.21060
C1905       C  0.07084670  0.29902067  0.14438684    -0.07580
C1906       C  0.02841150  0.30183775  0.13654938     0.13280
C1907       C  0.00970422  0.33414533  0.10711250    -0.24410
H1908       H  0.97400323  0.29474980  0.17015114     0.14570
H1909       H  0.11869222  0.25468245  0.16361008     0.14600
C1910       C  0.07146974  0.18276664  0.17009342    -0.24360
H1911       H  0.98881249  0.31733102  0.08501083     0.04810
H1912       H  0.03368140  0.35070826  0.08849455     0.08040
H1913       H  0.99146793  0.35845949  0.12447224     0.08040
H1914       H  0.04512302  0.16025229  0.17100603     0.08020
H1915       H  0.09476384  0.17518597  0.19438371     0.08020
H1916       H  0.08626907  0.17795729  0.13921000     0.04800
C1917       C  0.91498734  0.15652054  0.25324560    -0.21010
C1918       C  0.95346805  0.17333866  0.26506429    -0.07570
C1919       C  0.96221670  0.17523439  0.30750546     0.13290
C1920       C  0.94379833  0.14516609  0.33325254    -0.21060
C1921       C  0.90279161  0.13209187  0.32454155    -0.07580
C1922       C  0.88690675  0.14513243  0.28489237     0.13280
C1923       C  0.84405017  0.16208933  0.27933221    -0.24410
H1924       H  0.90470387  0.15846224  0.22121080     0.14570
H1925       H  0.95774765  0.13954817  0.36335351     0.14600
C1926       C  0.98027085  0.21559163  0.32558630    -0.24360
H1927       H  0.84552047  0.19610986  0.26944424     0.04810
H1928       H  0.82721369  0.16256274  0.30922572     0.08040
H1929       H  0.82791610  0.14414226  0.25432312     0.08040
H1930       H  0.98300766  0.24107285  0.30175662     0.08020
H1931       H  0.01118279  0.21009554  0.33782366     0.08020
H1932       H  0.95976925  0.22826636  0.35040983     0.04800
C1933       C  0.05715151  0.19299084  0.26900025    -0.21010
C1934       C  0.02788029  0.16710881  0.24862033    -0.07570
C1935       C  0.02878873  0.12252666  0.25580858     0.13290
C1936       C  0.04881353  0.10738741  0.29127299    -0.21060
C1937       C  0.07492631  0.13372100  0.31491073    -0.07580
C1938       C  0.08212596  0.17623798  0.30097174     0.13280
C1939       C  0.11292769  0.20585726  0.32134527    -0.24410
H1940       H  0.05750823  0.22712909  0.26320120     0.14570
H1941       H  0.04183474  0.07549894  0.30186014     0.14600
C1942       C  0.00515301  0.09148404  0.22860716    -0.24360
H1943       H  0.13592959  0.21632345  0.29787617     0.04810
H1944       H  0.12979676  0.19059728  0.34740615     0.08040
H1945       H  0.09678099  0.23458532  0.33375656     0.08040
H1946       H  0.01619544  0.09398193  0.19600503     0.08020
H1947       H  0.97153692  0.09788705  0.22930581     0.08020
H1948       H  0.00997116  0.05788522  0.23873910     0.04800
C1949       C  0.90789310  0.26786503  0.14048158    -0.21010
C1950       C  0.88459778  0.29484789  0.16590725    -0.07570
C1951       C  0.88606202  0.28671216  0.20940083     0.13290
C1952       C  0.91520951  0.25654267  0.22459312    -0.21060
C1953       C  0.93788443  0.23032902  0.19662551    -0.07580
C1954       C  0.92655224  0.23061742  0.15465847     0.13280
C1955       C  0.94498767  0.19947953  0.12369886    -0.24410
H1956       H  0.92181141  0.28210040  0.11386947     0.14570
H1957       H  0.92240098  0.25599244  0.25751632     0.14600
C1958       C  0.86059013  0.31246390  0.23964380    -0.24360
H1959       H  0.96694477  0.21614360  0.10273723     0.04810
H1960       H  0.91982078  0.18486633  0.10494646     0.08040
H1961       H  0.96152836  0.17284225  0.13935767     0.08040
H1962       H  0.82730728  0.30900955  0.23185011     0.08020
H1963       H  0.86915070  0.34671868  0.23845724     0.08020
H1964       H  0.86532561  0.30140385  0.27212289     0.04800
C1965       C  0.19799740  0.26868273  0.93963539    -0.21010
C1966       C  0.17363246  0.23741560  0.95874513    -0.07570
C1967       C  0.13326000  0.23155147  0.94250277     0.13290
C1968       C  0.11485187  0.26571293  0.92048796    -0.21060
C1969       C  0.14015906  0.29757288  0.90271725    -0.07580
C1970       C  0.18318376  0.29044697  0.90488711     0.13280
C1971       C  0.21314975  0.30832090  0.87351156    -0.24410
H1972       H  0.22726779  0.27826992  0.95260999     0.14570
H1973       H  0.08165888  0.26629106  0.91639940     0.14600
C1974       C  0.11284591  0.18842698  0.94151221    -0.24360
H1975       H  0.23627435  0.32918570  0.88878307     0.04810
H1976       H  0.19698568  0.32667692  0.84883455     0.08040
H1977       H  0.22989998  0.28144282  0.85830982     0.08040
H1978       H  0.13074209  0.16437607  0.95920591     0.08020
H1979       H  0.11197124  0.17683474  0.90894022     0.08020
H1980       H  0.08050090  0.19005320  0.95268998     0.04800
C1981       C  0.27101484  0.11146042  0.07113689    -0.21010
C1982       C  0.30411636  0.13468621  0.08940836    -0.07570
C1983       C  0.29924187  0.17973870  0.08744790     0.13290
C1984       C  0.27648854  0.19721047  0.05441164    -0.21060
C1985       C  0.24284445  0.17447921  0.03787307    -0.07580
C1986       C  0.23686778  0.13290801  0.05331614     0.13280
C1987       C  0.19435103  0.11389505  0.05672484    -0.24410
H1988       H  0.27084852  0.07756949  0.06861681     0.14570
H1989       H  0.28465596  0.22856100  0.04299037     0.14600
C1990       C  0.31423206  0.20899644  0.12134948    -0.24360
H1991       H  0.19259076  0.08211647  0.04166723     0.04810
H1992       H  0.17044818  0.13527031  0.04329104     0.08040
H1993       H  0.18676343  0.10986586  0.09020659     0.08040
H1994       H  0.33142353  0.19083767  0.14546885     0.08020
H1995       H  0.28718950  0.22424581  0.13665848     0.08020
H1996       H  0.33402768  0.23457724  0.10838922     0.04800
C1997       C  0.19910416  0.26163356  0.06451799    -0.21010
C1998       C  0.17235415  0.23859300  0.03800132    -0.07570
C1999       C  0.12944157  0.24427035  0.04484631     0.13290
C2000       C  0.11574498  0.28025344  0.06674150    -0.21060
C2001       C  0.14263964  0.30231151  0.09346779    -0.07580
C2002       C  0.18391208  0.28800799  0.09640249     0.13280
C2003       C  0.21155060  0.29977812  0.13275491    -0.24410
H2004       H  0.23160280  0.26171944  0.05977649     0.14570
H2005       H  0.08337743  0.28898175  0.06511684     0.14600
C2006       C  0.09771337  0.21108000  0.03482518    -0.24360
H2007       H  0.24282749  0.28555201  0.12920710     0.04810
H2008       H  0.19779212  0.28703479  0.16182253     0.08040
H2009       H  0.21554987  0.33464528  0.13684205     0.08040
H2010       H  0.11211101  0.18121575  0.02335728     0.08020
H2011       H  0.07463104  0.22433590  0.01282009     0.08020
H2012       H  0.08106446  0.20240497  0.06382294     0.04800
C2013       C  0.26693419  0.19923807  0.93515633    -0.21010
C2014       C  0.24103894  0.17293314  0.95922164    -0.07570
C2015       C  0.24333206  0.12860359  0.95140809     0.13290
C2016       C  0.27853266  0.11217150  0.93209182    -0.21060
C2017       C  0.30339784  0.13815703  0.90708556    -0.07580
C2018       C  0.29282139  0.18197878  0.90437089     0.13280
C2019       C  0.31158460  0.21170291  0.87280892    -0.24410
H2020       H  0.27070771  0.23248769  0.94203682     0.14570
H2021       H  0.28657696  0.07943941  0.93808401     0.14600
C2022       C  0.20879371  0.09834390  0.96041645    -0.24360
H2023       H  0.32689651  0.23885949  0.88884086     0.04810
H2024       H  0.28664513  0.22483547  0.85279990     0.08040
H2025       H  0.33428977  0.19527581  0.85231742     0.08040
H2026       H  0.18211035  0.11480477  0.97480278     0.08020
H2027       H  0.22014171  0.07159512  0.97994019     0.08020
H2028       H  0.19754750  0.08478289  0.93050081     0.04800
C2029       C  0.54186082  0.22141813  0.32321719    -0.21010
C2030       C  0.52720594  0.20820872  0.28433114    -0.07570
C2031       C  0.54583452  0.17203250  0.26590202     0.13290
C2032       C  0.57322892  0.14715718  0.28991779    -0.21060
C2033       C  0.57687386  0.15284073  0.33366999    -0.07580
C2034       C  0.56011074  0.19167152  0.35014327     0.13280
C2035       C  0.55133573  0.19949869  0.39516939    -0.24410
H2036       H  0.53101770  0.25173829  0.33572859     0.14570
H2037       H  0.58790163  0.12026752  0.27495025     0.14600
C2038       C  0.53650561  0.15865710  0.22183354    -0.24360
H2039       H  0.52143295  0.21627505  0.39969940     0.04810
H2040       H  0.57497709  0.22145895  0.40793727     0.08040
H2041       H  0.54765589  0.16879789  0.41159697     0.08040
H2042       H  0.54109349  0.18585978  0.20027610     0.08020
H2043       H  0.50450943  0.14668521  0.21974662     0.08020
H2044       H  0.55699573  0.13217386  0.21140523     0.04800
C2045       C  0.40956711  0.28099125  0.23348057    -0.21010
C2046       C  0.44996726  0.29497611  0.24205296    -0.07570
C2047       C  0.45933028  0.33767654  0.23040879     0.13290
C2048       C  0.43638456  0.35734739  0.19854398    -0.21060
C2049       C  0.40059179  0.33797407  0.18263677    -0.07580
C2050       C  0.38493867  0.30172846  0.20353199     0.13280
C2051       C  0.34391414  0.28205289  0.19311790    -0.24410
H2052       H  0.39803077  0.25187815  0.24624189     0.14570
H2053       H  0.44774462  0.38662640  0.18486188     0.14600
C2054       C  0.49573672  0.36111612  0.24864379    -0.24360
H2055       H  0.32298636  0.28499058  0.22037213     0.04810
H2056       H  0.34874018  0.24768869  0.18651924     0.08040
H2057       H  0.32874942  0.29683994  0.16577359     0.08040
H2058       H  0.51918764  0.36679040  0.22421480     0.08020
H2059       H  0.51026010  0.34280647  0.27438595     0.08020
H2060       H  0.48532389  0.39236951  0.26152429     0.04800
C2061       C  0.44921913  0.20947259  0.33547133    -0.21010
C2062       C  0.44972650  0.20884488  0.29167373    -0.07570
C2063       C  0.42164134  0.18088054  0.27098169     0.13290
C2064       C  0.39256981  0.15845840  0.29446343    -0.21060
C2065       C  0.39769756  0.15409807  0.33750396    -0.07580
C2066       C  0.42966444  0.17684457  0.35732064     0.13280
C2067       C  0.44986994  0.16176058  0.39703272    -0.24410
H2068       H  0.46911914  0.23074384  0.35257323     0.14570
H2069       H  0.36994639  0.13887859  0.27857215     0.14600
C2070       C  0.42251828  0.17143544  0.22503678    -0.24360
H2071       H  0.45265124  0.18859500  0.41967707     0.04810
H2072       H  0.48112867  0.14952040  0.38941771     0.08040
H2073       H  0.43343986  0.13474737  0.41188593     0.08040
H2074       H  0.44904788  0.18637204  0.20981956     0.08020
H2075       H  0.39349579  0.18261936  0.21009346     0.08020
H2076       H  0.42547154  0.13636455  0.21992367     0.04800
C2077       C  0.56124371  0.27977416  0.22948473    -0.21010
C2078       C  0.52040925  0.27133085  0.21663828    -0.07570
C2079       C  0.51072972  0.27680702  0.17435616     0.13290
C2080       C  0.53642385  0.30155534  0.15025207    -0.21060
C2081       C  0.57712652  0.31200804  0.16228720    -0.07580
C2082       C  0.59076042  0.29447058  0.20064751     0.13280
C2083       C  0.63496881  0.28405398  0.20952905    -0.24410
H2084       H  0.57084128  0.27368301  0.26115246     0.14570
H2085       H  0.52313225  0.31130556  0.12136524     0.14600
C2086       C  0.47299283  0.25874439  0.15323371    -0.24360
H2087       H  0.63779717  0.24926440  0.21577758     0.04810
H2088       H  0.64496228  0.30071134  0.23800698     0.08040
H2089       H  0.65526504  0.29156301  0.18279061     0.08040
H2090       H  0.45503815  0.28498826  0.13947502     0.08020
H2091       H  0.45235040  0.24151392  0.17412348     0.08020
H2092       H  0.48259938  0.23648780  0.12792626     0.04800
C2093       C  0.18736912  0.41366201  0.36962443    -0.21010
C2094       C  0.16001479  0.39044556  0.34410779    -0.07570
C2095       C  0.16473763  0.39387081  0.30023820     0.13290
C2096       C  0.19058826  0.42559854  0.28365751    -0.21060
C2097       C  0.21852963  0.44844880  0.30876942    -0.07580
C2098       C  0.21837545  0.43998013  0.35228480     0.13280
C2099       C  0.25091604  0.45712464  0.38109174    -0.24410
H2100       H  0.18461934  0.41114248  0.40318822     0.14570
H2101       H  0.18968598  0.43155908  0.25049352     0.14600
C2102       C  0.14008845  0.36669552  0.27024060    -0.24360
H2103       H  0.26291322  0.43076472  0.40085990     0.04810
H2104       H  0.23757328  0.48237959  0.40148317     0.08040
H2105       H  0.27776007  0.46937101  0.36366805     0.08040
H2106       H  0.11851686  0.38729092  0.25255463     0.08020
H2107       H  0.12204515  0.34147942  0.28621451     0.08020
H2108       H  0.16117052  0.35039366  0.24797048     0.04800
C2109       C  0.29485903  0.55819202  0.24064093    -0.21010
C2110       C  0.27661061  0.51891443  0.22898661    -0.07570
C2111       C  0.26814714  0.51213056  0.18654187     0.13290
C2112       C  0.28547686  0.53939521  0.15723974    -0.21060
C2113       C  0.30832301  0.57676389  0.16811111    -0.07580
C2114       C  0.30599742  0.58910630  0.21066964     0.13280
C2115       C  0.30900169  0.63479484  0.22509054    -0.24410
H2116       H  0.30006670  0.56547269  0.27292578     0.14570
H2117       H  0.28067247  0.52969476  0.12539060     0.14600
C2118       C  0.24197712  0.47560365  0.17056100    -0.24360
H2119       H  0.28069085  0.64323982  0.24293384     0.04810
H2120       H  0.31009863  0.65723955  0.19849989     0.08040
H2121       H  0.33603610  0.63913589  0.24598526     0.08040
H2122       H  0.22816788  0.45650110  0.19580203     0.08020
H2123       H  0.26092126  0.45418074  0.15049330     0.08020
H2124       H  0.21604970  0.48859360  0.15169826     0.04800
C2125       C  0.18624721  0.53841403  0.26768579    -0.21010
C2126       C  0.21870649  0.52790611  0.29496470    -0.07570
C2127       C  0.23152234  0.55997353  0.32365687     0.13290
C2128       C  0.20614542  0.59618310  0.32962239    -0.21060
C2129       C  0.16598515  0.59762987  0.31271397    -0.07580
C2130       C  0.16295901  0.57583736  0.27456557     0.13280
C2131       C  0.13692317  0.59390964  0.24104158    -0.24410
H2132       H  0.18002196  0.51849622  0.24065946     0.14570
H2133       H  0.21879458  0.62301414  0.34635570     0.14600
C2134       C  0.27133843  0.55794459  0.34792032    -0.24360
H2135       H  0.15465647  0.59498329  0.21146037     0.04810
H2136       H  0.12704588  0.62698942  0.24905430     0.08040
H2137       H  0.10954240  0.57373666  0.23816069     0.08040
H2138       H  0.29167450  0.53158149  0.33733291     0.08020
H2139       H  0.26458480  0.55433302  0.38160194     0.08020
H2140       H  0.28886948  0.58813446  0.34363694     0.04800
C2141       C  0.33836123  0.45609322  0.23422458    -0.21010
C2142       C  0.29918695  0.44408382  0.24977927    -0.07570
C2143       C  0.28470298  0.40314821  0.23664176     0.13290
C2144       C  0.30007485  0.38488111  0.19961720    -0.21060
C2145       C  0.33486832  0.40171562  0.17985722    -0.07580
C2146       C  0.35532539  0.43683333  0.19843124     0.13280
C2147       C  0.39281107  0.45732914  0.17922661    -0.24410
H2148       H  0.35242158  0.48538056  0.24565336     0.14570
H2149       H  0.28672020  0.35537471  0.18796961     0.14600
C2150       C  0.26515395  0.37184546  0.26589271    -0.24360
H2151       H  0.41821279  0.45891674  0.20249025     0.04810
H2152       H  0.38465333  0.49014982  0.16921267     0.08040
H2153       H  0.40433639  0.44006018  0.15134240     0.08040
H2154       H  0.23442183  0.36205847  0.25404671     0.08020
H2155       H  0.26403262  0.38399706  0.29824096     0.08020
H2156       H  0.28446686  0.34242889  0.26745686     0.04800
C2157       C  0.21276862  0.33359617  0.52179536    -0.21010
C2158       C  0.22234679  0.29045959  0.53041088    -0.07570
C2159       C  0.20174765  0.27138095  0.56527800     0.13290
C2160       C  0.17510530  0.29652780  0.58986025    -0.21060
C2161       C  0.16062045  0.33594274  0.57574148    -0.07580
C2162       C  0.17767039  0.35299848  0.53888294     0.13280
C2163       C  0.15710781  0.38737894  0.51314601    -0.24410
H2164       H  0.22681199  0.34879369  0.49502502     0.14570
H2165       H  0.16037620  0.28266254  0.61699259     0.14600
C2166       C  0.20126699  0.22438089  0.57469829    -0.24360
H2167       H  0.15076616  0.37465716  0.48141066     0.04810
H2168       H  0.17791700  0.41536127  0.50997551     0.08040
H2169       H  0.12703479  0.39801689  0.52596980     0.08040
H2170       H  0.23033815  0.21480559  0.59010240     0.08020
H2171       H  0.19442278  0.20610136  0.54607755     0.08020
H2172       H  0.17638781  0.21577149  0.59699929     0.04800
C2173       C  0.26792837  0.20103108  0.42278750    -0.21010
C2174       C  0.29140691  0.22207301  0.45373770    -0.07570
C2175       C  0.33476430  0.21886863  0.45192721     0.13290
C2176       C  0.35250060  0.18737874  0.42688888    -0.21060
C2177       C  0.32893110  0.16330579  0.39878427    -0.07580
C2178       C  0.28665716  0.17314551  0.39433347     0.13280
C2179       C  0.26006758  0.15253399  0.36171724    -0.24410
H2180       H  0.23463382  0.20321939  0.42210563     0.14570
H2181       H  0.38403012  0.17950406  0.43270756     0.14600
C2182       C  0.36295776  0.24644323  0.47798864    -0.24360
H2183       H  0.24449472  0.17787733  0.34327012     0.04810
H2184       H  0.23630472  0.13236418  0.37697727     0.08040
H2185       H  0.27834113  0.13254827  0.33974148     0.08040
H2186       H  0.37941319  0.22645481  0.50124896     0.08020
H2187       H  0.34598689  0.27248780  0.49422543     0.08020
H2188       H  0.38608355  0.26192829  0.45745829     0.04800
C2189       C  0.30834655  0.22954583  0.56239841    -0.21010
C2190       C  0.28331596  0.21314123  0.53026819    -0.07570
C2191       C  0.27056189  0.17021367  0.53236029     0.13290
C2192       C  0.28644529  0.14433025  0.56321758    -0.21060
C2193       C  0.31710700  0.15755480  0.59221319    -0.07580
C2194       C  0.32285157  0.20293988  0.59509421     0.13280
C2195       C  0.33382927  0.22583271  0.63479109    -0.24410
H2196       H  0.31469584  0.26358652  0.56320649     0.14570
H2197       H  0.27386942  0.11259153  0.56306009     0.14600
C2198       C  0.23879816  0.15014316  0.50358656    -0.24360
H2199       H  0.31100927  0.25179159  0.64075366     0.04810
H2200       H  0.36458143  0.24115386  0.63227179     0.08040
H2201       H  0.33114131  0.20458707  0.66205855     0.08040
H2202       H  0.25408509  0.12659764  0.48259429     0.08020
H2203       H  0.22163829  0.17389253  0.48501607     0.08020
H2204       H  0.21504481  0.13314108  0.52223099     0.04800
C2205       C  0.19163466  0.31504422  0.39544056    -0.21010
C2206       C  0.14975452  0.31186808  0.40837993    -0.07570
C2207       C  0.14254734  0.28290741  0.44276626     0.13290
C2208       C  0.17489195  0.25867870  0.45853605    -0.21060
C2209       C  0.21486342  0.27321389  0.45448817    -0.07580
C2210       C  0.22428062  0.30059802  0.42106810     0.13280
C2211       C  0.26768384  0.31570059  0.41302438    -0.24410
H2212       H  0.20003068  0.33012322  0.36676981     0.14570
H2213       H  0.16879258  0.23507058  0.48243273     0.14600
C2214       C  0.10501242  0.28119051  0.47040518    -0.24360
H2215       H  0.26850448  0.33994139  0.38782839     0.04810
H2216       H  0.28748534  0.28857126  0.40310901     0.08040
H2217       H  0.28075047  0.33055066  0.44161224     0.08040
H2218       H  0.08025298  0.26242147  0.45566950     0.08020
H2219       H  0.09694774  0.31386853  0.48045168     0.08020
H2220       H  0.11061869  0.26445266  0.50041278     0.04800
loop_ 
_geom_bond_atom_site_label_1 
_geom_bond_atom_site_label_2 
_geom_bond_distance 
_geom_bond_site_symmetry_2 
_ccdc_geom_bond_type 
C1            C2   1.358       .  D
C1         C2158   1.520       .  S
C1         C2209   1.493       .  S
C2         C2174   1.495       .  S
C2         C2190   1.485       .  S
C3            C4   1.382       .  D
C3         C2110   1.516       .  S
C3         C2142   1.533       .  S
C4         C2097   1.507       .  S
C4         C2126   1.502       .  S
C5            C6   1.368       .  D
C5         C2046   1.528       .  S
C5         C2078   1.495       .  S
C6         C2030   1.505       .  S
C6         C2062   1.498       .  S
C7            C8   1.379       .  D
C7         C1985   1.507   1_556  S
C7         C2014   1.506       .  S
C8         C1966   1.506       .  S
C8         C1998   1.512   1_556  S
C9           C10   1.364       .  D
C9         C1902   1.542   1_655  S
C9         C1953   1.506       .  S
C10        C1918   1.501       .  S
C10        C1934   1.493   1_655  S
C11          C12   1.371       .  D
C11        C1841   1.504       .  S
C11        C1870   1.509   1_565  S
C12        C1854   1.536   1_565  S
C12        C1886   1.502       .  S
C13          C14   1.371       .  D
C13        C1777   1.503       .  S
C13        C1793   1.505       .  S
C14        C1806   1.510       .  S
C14        C1822   1.497       .  S
C15          C16   1.375       .  D
C15        C1742   1.510       .  S
C15        C1758   1.500       .  S
C16        C1713   1.515       .  S
C16        C1726   1.540       .  S
C17          C18   1.366       .  D
C17        C1649   1.492       .  S
C17        C1662   1.495       .  S
C18        C1678   1.513       .  S
C18        C1694   1.527       .  S
C19          C20   1.382       .  D
C19        C1614   1.525       .  S
C19        C1630   1.490       .  S
C20        C1582   1.570       .  S
C20        C1601   1.504       .  S
C21          C22   1.375       .  D
C21        C1550   1.520       .  S
C21        C1566   1.491       .  S
C22        C1521   1.517       .  S
C22        C1537   1.497       .  S
C23          C24   1.362       .  D
C23        C1486   1.533       .  S
C23        C1502   1.500       .  S
C24        C1457   1.499       .  S
C24        C1473   1.487       .  S
C25          C26   1.381       .  D
C25        C1390   1.503       .  S
C25        C1409   1.525   1_554  S
C26        C1422   1.522       .  S
C26        C1438   1.510   1_554  S
C27          C28   1.387       .  D
C27        C1358   1.503       .  S
C27        C1374   1.557   1_554  S
C28        C1326   1.513       .  S
C28        C1345   1.529   1_554  S
C29          C30   1.384       .  D
C29        C1262   1.519   1_655  S
C29        C1278   1.503       .  S
C30        C1294   1.545       .  S
C30        C1310   1.531   1_655  S
C31          C32   1.367       .  D
C31        C1230   1.525   1_565  S
C31        C1246   1.516       .  S
C32        C1198   1.518       .  S
C32        C1214   1.514   1_565  S
C33          C34   1.386       .  D
C33        C1134   1.542       .  S
C33        C1150   1.509   1_655  S
C34        C1166   1.518   1_655  S
C34        C1182   1.497       .  S
C35          C36   1.388       .  D
C35        C1073   1.507   1_565  S
C35        C1086   1.531       .  S
C36        C1105   1.494       .  S
C36        C1118   1.554   1_565  S
N37          N38   1.313       .  A
N37          N43   1.310       .  A
N37         Mn66   2.154   1_556  S
N38          C45   1.351       .  A
N39          N41   1.315       .  A
N39          N40   1.315       .  A
N39         Mn55   2.179   1_554  S
N40          C46   1.348       .  A
N41          N42   1.316       .  A
N41         Mn66   2.177       .  S
N42          C46   1.352       .  A
N43          N44   1.313       .  A
N43         Mn55   2.155       .  S
N44          C45   1.346       .  A
C45         C651   1.460       .  S
C46         C681   1.463       .  S
N47          N53   1.312       .  A
N47          N48   1.345       .  A
N47         Mn77   2.254       .  S
N48          C56   1.375       .  A
N49          N50   1.305       .  A
N49          N51   1.313       .  A
N49         Mn55   2.170       .  S
N50          C57   1.343       .  A
N51          N52   1.335       .  A
N51         Mn77   2.251   1_556  S
N52          C57   1.369       .  A
N53          N54   1.300       .  A
N53         Mn55   2.184   1_554  S
N54          C56   1.341       .  A
Mn55        Cl79   2.447   1_556  S
C56         C647   1.539       .  S
C57         C181   1.491       .  S
N58          N59   1.321       .  A
N58          N64   1.313       .  A
N58         Mn66   2.187       .  S
N59          C67   1.350       .  A
N60          N62   1.316       .  A
N60          N61   1.327       .  A
N60         Mn78   2.240   1_556  S
N61          C68   1.357       .  A
N62          N63   1.326       .  A
N62         Mn66   2.227   1_556  S
N63          C68   1.357       .  A
N64          N65   1.327       .  A
N64         Mn78   2.243       .  S
N65          C67   1.360       .  A
Mn66        Cl79   2.618       .  S
C67         C683   1.489       .  S
C68         C637   1.509       .  S
N69          N70   1.339       .  A
N69          N75   1.318       .  A
N69         Mn77   2.239   1_556  S
N70          C80   1.366       .  A
N71          N72   1.305       .  A
N71          N73   1.319       .  A
N71         Mn78   2.209       .  S
N72          C81   1.346       .  A
N73          N74   1.336       .  A
N73         Mn77   2.248       .  S
N74          C81   1.367       .  A
N75          N76   1.307       .  A
N75         Mn78   2.233   1_556  S
N76          C80   1.350       .  A
Mn77        Cl79   2.664       .  S
Mn78        Cl79   2.460       .  S
C80         C176   1.525       .  S
C81         C649   1.503       .  S
N82          N83   1.349       .  A
N82          N88   1.313       .  A
N82        Mn111   2.227       .  S
N83          C90   1.371       .  A
N84          N86   1.313       .  A
N84          N85   1.335       .  A
N84        Mn100   2.238       .  S
N85          C91   1.369       .  A
N86          N87   1.307       .  A
N86        Mn111   2.177       .  S
N87          C91   1.342       .  A
N88          N89   1.291       .  A
N88        Mn100   2.196       .  S
N89          C90   1.343       .  A
C90         C127   1.536       .  S
C91         C640   1.500       .  S
N92          N98   1.316       .  A
N92          N93   1.318       .  A
N92        Mn122   2.230       .  S
N93         C101   1.340       .  A
N94          N95   1.313       .  A
N94          N96   1.318       .  A
N94        Mn100   2.238   1_554  S
N95         C102   1.350       .  A
N96          N97   1.342       .  A
N96        Mn122   2.255       .  S
N97         C102   1.369       .  A
N98          N99   1.334       .  A
N98        Mn100   2.250   1_554  S
N99         C101   1.366       .  A
Mn100      Cl124   2.536       .  S
C101        C678   1.518       .  S
C102        C183   1.529       .  S
N103        N104   1.306       .  A
N103        N109   1.312       .  A
N103       Mn111   2.163       .  S
N104        C112   1.340       .  A
N105        N107   1.314       .  A
N105        N106   1.297       .  A
N105       Mn123   2.180       .  S
N106        C113   1.343       .  A
N107        N108   1.341       .  A
N107       Mn111   2.226       .  S
N108        C113   1.367       .  A
N109        N110   1.331       .  A
N109       Mn123   2.217       .  S
N110        C112   1.366       .  A
Mn111      Cl124   2.546       .  S
C112        C645   1.493       .  S
C113        C178   1.514       .  S
N114        N115   1.333       .  A
N114        N120   1.322       .  A
N114       Mn122   2.226       .  S
N115        C125   1.361       .  A
N116        N117   1.345       .  A
N116        N118   1.313       .  A
N116       Mn123   2.225   1_554  S
N117        C126   1.371       .  A
N118        N119   1.292       .  A
N118       Mn122   2.184       .  S
N119        C126   1.328       .  A
N120        N121   1.312       .  A
N120       Mn123   2.224   1_554  S
N121        C125   1.347       .  A
Mn122      Cl124   2.545   1_554  S
Mn123      Cl124   2.549       .  S
C125        C130   1.503       .  S
C126        C680   1.525       .  S
C127        C128   1.379       .  D
C127       C1377   1.516       .  S
C128        C151   1.518       .  S
C128       C1297   1.524       .  S
C129        C130   1.369       .  D
C129        C204   1.509       .  S
C129       C1137   1.513       .  S
C130       C1054   1.526       .  S
N131        N132   1.303       .  A
N131        N137   1.314       .  A
N131       Mn160   2.193       .  S
N132        C139   1.341       .  A
N133        N135   1.313       .  A
N133        N134   1.338       .  A
N133       Mn149   2.235   1_455  S
N134        C140   1.367       .  A
N135        N136   1.307       .  A
N135       Mn160   2.191   1_455  S
N136        C140   1.347       .  A
N137        N138   1.335       .  A
N137       Mn149   2.243       .  S
N138        C139   1.369       .  A
C139        C179   1.501       .  S
C140        C180   1.509       .  S
N141        N147   1.317       .  A
N141        N142   1.313       .  A
N141       Mn171   2.227   1_455  S
N142        C150   1.356       .  A
N143        N144   1.339       .  A
N143        N145   1.317       .  A
N143       Mn149   2.281       .  S
N144        C151   1.370       .  A
N145        N146   1.320       .  A
N145       Mn171   2.221       .  S
N146        C151   1.352       .  A
N147        N148   1.333       .  A
N147       Mn149   2.237   1_455  S
N148        C150   1.364       .  A
Mn149      Cl173   2.647       .  S
C150        C177   1.505       .  S
N152        N153   1.319       .  A
N152        N158   1.316       .  A
N152       Mn160   2.205   1_455  S
N153        C161   1.353       .  A
N154        N156   1.310       .  A
N154        N155   1.321       .  A
N154       Mn172   2.206       .  S
N155        C162   1.357       .  A
N156        N157   1.316       .  A
N156       Mn160   2.160       .  S
N157        C162   1.348       .  A
N158        N159   1.318       .  A
N158       Mn172   2.189   1_455  S
N159        C161   1.351       .  A
Mn160      Cl173   2.458       .  S
C161        C663   1.473       .  S
C162        C658   1.477       .  S
N163        N164   1.320       .  A
N163        N169   1.320       .  A
N163       Mn171   2.218       .  S
N164        C174   1.352       .  A
N165        N166   1.319       .  A
N165        N167   1.312       .  A
N165       Mn172   2.184   1_455  S
N166        C175   1.350       .  A
N167        N168   1.319       .  A
N167       Mn171   2.190   1_455  S
N168        C175   1.351       .  A
N169        N170   1.325       .  A
N169       Mn172   2.237       .  S
N170        C174   1.357       .  A
Mn171      Cl173   2.481       .  S
Mn172      Cl173   2.606       .  S
C174        C632   1.502       .  S
C175        C619   1.474       .  S
C176        C177   1.376       .  D
C176       C1969   1.516       .  S
C177       C1313   1.518       .  S
C178        C179   1.370       .  D
C178       C1025   1.515       .  S
C179       C1038   1.526       .  S
C180        C181   1.375       .  D
C180       C1006   1.513       .  S
C181       C1406   1.513       .  S
C182        C183   1.379       .  D
C182        C227   1.491       .  S
C182       C1950   1.520       .  S
C183       C1361   1.512       .  S
N184        N185   1.329       .  A
N184        N190   1.310       .  A
N184       Mn213   2.225       .  S
N185        C192   1.363       .  A
N186        N188   1.311       .  A
N186        N187   1.336       .  A
N186       Mn202   2.277   1_455  S
N187        C193   1.369       .  A
N188        N189   1.310       .  A
N188       Mn213   2.142       .  S
N189        C193   1.338       .  A
N190        N191   1.314       .  A
N190       Mn202   2.204   1_455  S
N191        C192   1.346       .  A
C192        C648   1.506       .  S
C193        C653   1.502       .  S
N194        N200   1.314       .  A
N194        N195   1.303       .  A
N194       Mn224   2.151       .  S
N195        C203   1.338       .  A
N196        N197   1.304       .  A
N196        N198   1.309       .  A
N196       Mn202   2.161       .  S
N197        C204   1.337       .  A
N198        N199   1.340       .  A
N198       Mn224   2.256       .  S
N199        C204   1.373       .  A
N200        N201   1.341       .  A
N200       Mn202   2.280       .  S
N201        C203   1.374       .  A
Mn202      Cl226   2.514       .  S
C203        C655   1.501       .  S
N205        N206   1.310       .  A
N205        N211   1.314       .  A
N205       Mn213   2.191       .  S
N206        C214   1.348       .  A
N207        N209   1.311       .  A
N207        N208   1.297       .  A
N207       Mn225   2.187   1_455  S
N208        C215   1.347       .  A
N209        N210   1.337       .  A
N209       Mn213   2.190       .  S
N210        C215   1.361       .  A
N211        N212   1.329       .  A
N211       Mn225   2.217   1_455  S
N212        C214   1.364       .  A
Mn213      Cl226   2.532   1_455  S
C214        C628   1.510       .  S
C215        C650   1.504       .  S
N216        N217   1.332       .  A
N216        N222   1.318       .  A
N216       Mn224   2.221       .  S
N217        C227   1.361       .  A
N218        N219   1.335       .  A
N218        N220   1.314       .  A
N218       Mn225   2.234       .  S
N219        C228   1.366       .  A
N220        N221   1.309       .  A
N220       Mn224   2.188       .  S
N221        C228   1.346       .  A
N222        N223   1.310       .  A
N222       Mn225   2.210       .  S
N223        C227   1.349       .  A
Mn224      Cl226   2.532       .  S
Mn225      Cl226   2.529       .  S
C228        C621   1.503       .  S
N229        N230   1.310       .  A
N229        N235   1.318       .  A
N229       Mn258   2.246   1_556  S
N230        C237   1.355       .  A
N231        N233   1.317       .  A
N231        N232   1.338       .  A
N231       Mn247   2.240   1_554  S
N232        C238   1.367       .  A
N233        N234   1.303       .  A
N233       Mn258   2.197       .  S
N234        C238   1.339       .  A
N235        N236   1.337       .  A
N235       Mn247   2.222       .  S
N236        C237   1.362       .  A
C237        C373   1.515       .  S
C238        C633   1.514       .  S
N239        N245   1.317       .  A
N239        N240   1.306       .  A
N239       Mn269   2.238   1_554  S
N240        C248   1.352       .  A
N241        N242   1.331       .  A
N241        N243   1.310       .  A
N241       Mn247   2.232       .  S
N242        C249   1.368       .  A
N243        N244   1.302       .  A
N243       Mn269   2.158       .  S
N244        C249   1.341       .  A
N245        N246   1.342       .  A
N245       Mn247   2.235   1_554  S
N246        C248   1.367       .  A
Mn247      Cl271   2.677   1_556  S
C248        C635   1.531       .  S
C249        C322   1.489       .  S
N250        N251   1.323       .  A
N250        N256   1.320       .  A
N250       Mn258   2.218       .  S
N251        C259   1.351       .  A
N252        N254   1.316       .  A
N252        N253   1.322       .  A
N252       Mn270   2.208   1_556  S
N253        C260   1.355       .  A
N254        N255   1.319       .  A
N254       Mn258   2.197   1_556  S
N255        C260   1.350       .  A
N256        N257   1.327       .  A
N256       Mn270   2.242       .  S
N257        C259   1.359       .  A
Mn258      Cl271   2.471       .  S
C259        C684   1.490       .  S
C260        C638   1.482       .  S
N261        N262   1.318       .  A
N261        N267   1.313       .  A
N261       Mn269   2.198       .  S
N262        C272   1.349       .  A
N263        N264   1.323       .  A
N263        N265   1.315       .  A
N263       Mn270   2.230       .  S
N264        C273   1.361       .  A
N265        N266   1.320       .  A
N265       Mn269   2.191   1_554  S
N266        C273   1.354       .  A
N267        N268   1.325       .  A
N267       Mn270   2.204   1_556  S
N268        C272   1.357       .  A
Mn269      Cl271   2.449   1_556  S
Mn270      Cl271   2.616       .  S
C272        C639   1.475       .  S
C273        C677   1.489       .  S
N274        N275   1.321       .  A
N274        N280   1.315       .  A
N274       Mn303   2.188       .  S
N275        C282   1.350       .  A
N276        N278   1.316       .  A
N276        N277   1.324       .  A
N276       Mn292   2.228   1_545  S
N277        C283   1.357       .  A
N278        N279   1.321       .  A
N278       Mn303   2.200   1_545  S
N279        C283   1.352       .  A
N280        N281   1.323       .  A
N280       Mn292   2.225       .  S
N281        C282   1.357       .  A
C282        C618   1.483       .  S
C283        C629   1.496       .  S
N284        N290   1.317       .  A
N284        N285   1.338       .  A
N284       Mn314   2.237   1_545  S
N285        C293   1.366       .  A
N286        N287   1.319       .  A
N286        N288   1.318       .  A
N286       Mn292   2.245       .  S
N287        C294   1.358       .  A
N288        N289   1.332       .  A
N288       Mn314   2.250       .  S
N289        C294   1.366       .  A
N290        N291   1.312       .  A
N290       Mn292   2.243   1_545  S
N291        C293   1.347       .  A
Mn292      Cl316   2.463       .  S
C293        C372   1.510       .  S
C294        C320   1.530       .  S
N295        N296   1.327       .  A
N295        N301   1.311       .  A
N295       Mn303   2.202   1_545  S
N296        C304   1.356       .  A
N297        N299   1.314       .  A
N297        N298   1.318       .  A
N297       Mn315   2.191       .  S
N298        C305   1.353       .  A
N299        N300   1.322       .  A
N299       Mn303   2.214       .  S
N300        C305   1.356       .  A
N301        N302   1.315       .  A
N301       Mn315   2.187   1_545  S
N302        C304   1.346       .  A
Mn303      Cl316   2.604       .  S
C304        C660   1.493       .  S
C305        C662   1.493       .  S
N306        N307   1.335       .  A
N306        N312   1.318       .  A
N306       Mn314   2.227       .  S
N307        C317   1.363       .  A
N308        N309   1.296       .  A
N308        N310   1.311       .  A
N308       Mn315   2.187   1_545  S
N309        C318   1.332       .  A
N310        N311   1.343       .  A
N310       Mn314   2.252   1_545  S
N311        C318   1.375       .  A
N312        N313   1.310       .  A
N312       Mn315   2.223       .  S
N313        C317   1.351       .  A
Mn314      Cl316   2.677       .  S
Mn315      Cl316   2.447       .  S
C317        C324   1.503       .  S
C318        C321   1.540       .  S
C319        C320   1.391       .  D
C319        C333   1.506       .  S
C319       C1441   1.571       .  S
C320       C1249   1.517       .  S
C321        C322   1.365       .  D
C321        C990   1.578       .  S
C322       C1342   1.488       .  S
C323        C324   1.381       .  D
C323        C356   1.515       .  S
C323        C974   1.521       .  S
C324        C958   1.507       .  S
N325        N326   1.327       .  A
N325        N331   1.317       .  A
N325       Mn354   2.221       .  S
N326        C333   1.360       .  A
N327        N329   1.315       .  A
N327        N328   1.312       .  A
N327       Mn343   2.206   1_554  S
N328        C334   1.348       .  A
N329        N330   1.337       .  A
N329       Mn354   2.247   1_554  S
N330        C334   1.367       .  A
N331        N332   1.316       .  A
N331       Mn343   2.228       .  S
N332        C333   1.350       .  A
C334        C371   1.508       .  S
N335        N341   1.318       .  A
N335        N336   1.327       .  A
N335       Mn365   2.246       .  S
N336        C344   1.360       .  A
N337        N338   1.312       .  A
N337        N339   1.311       .  A
N337       Mn343   2.164       .  S
N338        C345   1.346       .  A
N339        N340   1.329       .  A
N339       Mn365   2.225   1_556  S
N340        C345   1.361       .  A
N341        N342   1.322       .  A
N341       Mn343   2.207   1_554  S
N342        C344   1.352       .  A
Mn343      Cl367   2.466       .  S
C344        C682   1.504       .  S
C345        C652   1.506       .  S
N346        N347   1.325       .  A
N346        N352   1.317       .  A
N346       Mn354   2.221   1_554  S
N347        C355   1.359       .  A
N348        N350   1.316       .  A
N348        N349   1.314       .  A
N348       Mn366   2.214   1_556  S
N349        C356   1.348       .  A
N350        N351   1.338       .  A
N350       Mn354   2.250       .  S
N351        C356   1.368       .  A
N352        N353   1.317       .  A
N352       Mn366   2.227       .  S
N353        C355   1.349       .  A
Mn354      Cl367   2.645       .  S
C355        C375   1.503       .  S
N357        N358   1.319       .  A
N357        N363   1.317       .  A
N357       Mn365   2.218   1_556  S
N358        C368   1.354       .  A
N359        N360   1.315       .  A
N359        N361   1.312       .  A
N359       Mn366   2.160       .  S
N360        C369   1.346       .  A
N361        N362   1.322       .  A
N361       Mn365   2.208       .  S
N362        C369   1.358       .  A
N363        N364   1.321       .  A
N363       Mn366   2.205   1_556  S
N364        C368   1.354       .  A
Mn365      Cl367   2.594   1_554  S
Mn366      Cl367   2.470   1_554  S
C368        C646   1.481       .  S
C369        C679   1.468       .  S
C370        C371   1.378       .  D
C370        C384   1.498       .  S
C370       C1838   1.540       .  S
C371       C1425   1.492       .  S
C372        C373   1.383       .  D
C372       C1233   1.522       .  S
C373       C2017   1.504       .  S
C374        C375   1.388       .  D
C374        C407   1.521       .  S
C374       C1089   1.530       .  S
C375        C945   1.561       .  S
N376        N377   1.334       .  A
N376        N382   1.315       .  A
N376       Mn405   2.221       .  S
N377        C384   1.364       .  A
N378        N380   1.317       .  A
N378        N379   1.308       .  A
N378       Mn394   2.198   1_545  S
N379        C385   1.345       .  A
N380        N381   1.337       .  A
N380       Mn405   2.252   1_545  S
N381        C385   1.367       .  A
N382        N383   1.302       .  A
N382       Mn394   2.181       .  S
N383        C384   1.341       .  A
C385        C634   1.510       .  S
N386        N392   1.314       .  A
N386        N387   1.321       .  A
N386       Mn416   2.198   1_545  S
N387        C395   1.353       .  A
N388        N389   1.322       .  A
N388        N390   1.313       .  A
N388       Mn394   2.200       .  S
N389        C396   1.352       .  A
N390        N391   1.315       .  A
N390       Mn416   2.188       .  S
N391        C396   1.353       .  A
N392        N393   1.318       .  A
N392       Mn394   2.191   1_545  S
N393        C395   1.350       .  A
Mn394      Cl418   2.465       .  S
C395        C624   1.471       .  S
C396        C626   1.500       .  S
N397        N398   1.336       .  A
N397        N403   1.318       .  A
N397       Mn405   2.217   1_545  S
N398        C406   1.361       .  A
N399        N401   1.318       .  A
N399        N400   1.317       .  A
N399       Mn417   2.219       .  S
N400        C407   1.353       .  A
N401        N402   1.329       .  A
N401       Mn405   2.243       .  S
N402        C407   1.364       .  A
N403        N404   1.310       .  A
N403       Mn417   2.242   1_545  S
N404        C406   1.350       .  A
Mn405      Cl418   2.654       .  S
C406        C636   1.505       .  S
N408        N409   1.328       .  A
N408        N414   1.316       .  A
N408       Mn416   2.237       .  S
N409        C419   1.360       .  A
N410        N411   1.322       .  A
N410        N412   1.315       .  A
N410       Mn417   2.223   1_545  S
N411        C420   1.357       .  A
N412        N413   1.320       .  A
N412       Mn416   2.188   1_545  S
N413        C420   1.350       .  A
N414        N415   1.323       .  A
N414       Mn417   2.212       .  S
N415        C419   1.353       .  A
Mn416      Cl418   2.604       .  S
Mn417      Cl418   2.473       .  S
C419        C641   1.497       .  S
C420        C644   1.488       .  S
N421        N422   1.318       .  A
N421        N427   1.311       .  A
N421       Mn450   2.184       .  S
N422        C429   1.352       .  A
N423        N425   1.318       .  A
N423        N424   1.319       .  A
N423       Mn439   2.206   1_545  S
N424        C430   1.352       .  A
N425        N426   1.317       .  A
N425       Mn450   2.187   1_545  S
N426        C430   1.349       .  A
N427        N428   1.317       .  A
N427       Mn439   2.164       .  S
N428        C429   1.348       .  A
C429        C625   1.473       .  S
C430        C623   1.467       .  S
N431        N437   1.317       .  A
N431        N432   1.337       .  A
N431       Mn461   2.256   1_545  S
N432        C440   1.367       .  A
N433        N434   1.313       .  A
N433        N435   1.316       .  A
N433       Mn439   2.217       .  S
N434        C441   1.351       .  A
N435        N436   1.329       .  A
N435       Mn461   2.228       .  S
N436        C441   1.365       .  A
N437        N438   1.314       .  A
N437       Mn439   2.215   1_545  S
N438        C440   1.344       .  A
Mn439      Cl463   2.454       .  S
C440        C614   1.506       .  S
C441        C611   1.500       .  S
N442        N443   1.319       .  A
N442        N448   1.311       .  A
N442       Mn450   2.190   1_545  S
N443        C451   1.356       .  A
N444        N446   1.315       .  A
N444        N445   1.319       .  A
N444       Mn462   2.193       .  S
N445        C452   1.351       .  A
N446        N447   1.319       .  A
N446       Mn450   2.198       .  S
N447        C452   1.350       .  A
N448        N449   1.317       .  A
N448       Mn462   2.161   1_545  S
N449        C451   1.348       .  A
Mn450      Cl463   2.604       .  S
C451        C630   1.477       .  S
C452        C617   1.466       .  S
N453        N454   1.339       .  A
N453        N459   1.311       .  A
N453       Mn461   2.254       .  S
N454        C464   1.371       .  A
N455        N456   1.316       .  A
N455        N457   1.317       .  A
N455       Mn462   2.240   1_545  S
N456        C465   1.356       .  A
N457        N458   1.333       .  A
N457       Mn461   2.250   1_545  S
N458        C465   1.368       .  A
N459        N460   1.311       .  A
N459       Mn462   2.194       .  S
N460        C464   1.342       .  A
Mn461      Cl463   2.655       .  S
Mn462      Cl463   2.454       .  S
C464        C607   1.506       .  S
C465        C616   1.520       .  S
N466        N467   1.318       .  A
N466        N472   1.316       .  A
N466       Mn495   2.194   1_455  S
N467        C474   1.351       .  A
N468        N470   1.315       .  A
N468        N469   1.317       .  A
N468       Mn484   2.204       .  S
N469        C475   1.351       .  A
N470        N471   1.318       .  A
N470       Mn495   2.171       .  S
N471        C475   1.349       .  A
N472        N473   1.321       .  A
N472       Mn484   2.201   1_455  S
N473        C474   1.354       .  A
C474        C627   1.475       .  S
C475        C622   1.459       .  S
N476        N482   1.314       .  A
N476        N477   1.333       .  A
N476       Mn506   2.250       .  S
N477        C485   1.368       .  A
N478        N479   1.312       .  A
N478        N480   1.317       .  A
N478       Mn484   2.257   1_455  S
N479        C486   1.348       .  A
N480        N481   1.337       .  A
N480       Mn506   2.219   1_455  S
N481        C486   1.364       .  A
N482        N483   1.315       .  A
N482       Mn484   2.213       .  S
N483        C485   1.352       .  A
Mn484      Cl508   2.448       .  S
C485        C511   1.511       .  S
C486        C613   1.510       .  S
N487        N488   1.320       .  A
N487        N493   1.311       .  A
N487       Mn495   2.198       .  S
N488        C496   1.358       .  A
N489        N491   1.316       .  A
N489        N490   1.317       .  A
N489       Mn507   2.190   1_455  S
N490        C497   1.350       .  A
N491        N492   1.321       .  A
N491       Mn495   2.199   1_455  S
N492        C497   1.351       .  A
N493        N494   1.314       .  A
N493       Mn507   2.158       .  S
N494        C496   1.346       .  A
Mn495      Cl508   2.610       .  S
C496        C631   1.475       .  S
C497        C620   1.468       .  S
N498        N499   1.338       .  A
N498        N504   1.314       .  A
N498       Mn506   2.263   1_455  S
N499        C509   1.371       .  A
N500        N501   1.306       .  A
N500        N502   1.315       .  A
N500       Mn507   2.213       .  S
N501        C510   1.351       .  A
N502        N503   1.333       .  A
N502       Mn506   2.207       .  S
N503        C510   1.361       .  A
N504        N505   1.306       .  A
N504       Mn507   2.172   1_455  S
N505        C509   1.339       .  A
Mn506      Cl508   2.669       .  S
Mn507      Cl508   2.449       .  S
C509        C615   1.513       .  S
C510        C609   1.494       .  S
C511        C512   1.380       .  D
C511       C1921   1.532       .  S
C512        C521   1.517       .  S
C512       C1121   1.524       .  S
N513        N514   1.320       .  A
N513        N519   1.318       .  A
N513       Mn542   2.246   1_545  S
N514        C521   1.349       .  A
N515        N517   1.317       .  A
N515        N516   1.329       .  A
N515       Mn531   2.226       .  S
N516        C522   1.364       .  A
N517        N518   1.312       .  A
N517       Mn542   2.219       .  S
N518        C522   1.350       .  A
N519        N520   1.334       .  A
N519       Mn531   2.237   1_545  S
N520        C521   1.362       .  A
C522        C606   1.501       .  S
N523        N529   1.311       .  A
N523        N524   1.301       .  A
N523       Mn553   2.186       .  S
N524        C532   1.339       .  A
N525        N526   1.335       .  A
N525        N527   1.318       .  A
N525       Mn531   2.228   1_545  S
N526        C533   1.364       .  A
N527        N528   1.309       .  A
N527       Mn553   2.229   1_545  S
N528        C533   1.353       .  A
N529        N530   1.344       .  A
N529       Mn531   2.252       .  S
N530        C532   1.372       .  A
Mn531      Cl555   2.670       .  S
C532        C558   1.530       .  S
C533        C610   1.504       .  S
N534        N535   1.322       .  A
N534        N540   1.313       .  A
N534       Mn542   2.202       .  S
N535        C543   1.351       .  A
N536        N538   1.318       .  A
N536        N537   1.326       .  A
N536       Mn554   2.231   1_545  S
N537        C544   1.356       .  A
N538        N539   1.322       .  A
N538       Mn542   2.224   1_545  S
N539        C544   1.356       .  A
N540        N541   1.325       .  A
N540       Mn554   2.222       .  S
N541        C543   1.356       .  A
Mn542      Cl555   2.471       .  S
C543        C642   1.495       .  S
C544        C643   1.497       .  S
N545        N546   1.315       .  A
N545        N551   1.313       .  A
N545       Mn553   2.182   1_545  S
N546        C556   1.350       .  A
N547        N548   1.317       .  A
N547        N549   1.315       .  A
N547       Mn554   2.214       .  S
N548        C557   1.353       .  A
N549        N550   1.324       .  A
N549       Mn553   2.206       .  S
N550        C557   1.351       .  A
N551        N552   1.321       .  A
N551       Mn554   2.189   1_545  S
N552        C556   1.357       .  A
Mn553      Cl555   2.454       .  S
Mn554      Cl555   2.608       .  S
C556        C659   1.481       .  S
C557        C661   1.502       .  S
C558        C559   1.379       .  D
C558        C926   1.550       .  S
C559        C580   1.520       .  S
C559        C910   1.513       .  S
N560        N561   1.340       .  A
N560        N566   1.315       .  A
N560       Mn589   2.183       .  S
N561        C568   1.361       .  A
N562        N564   1.318       .  A
N562        N563   1.341       .  A
N562       Mn578   2.221   1_455  S
N563        C569   1.365       .  A
N564        N565   1.301       .  A
N564       Mn589   2.195       .  S
N565        C569   1.345       .  A
N566        N567   1.291       .  A
N566       Mn578   2.203   1_455  S
N567        C568   1.345       .  A
C568        C608   1.512       .  S
C569        C664   1.531       .  S
N570        N576   1.318       .  A
N570        N571   1.315       .  A
N570       Mn600   2.196       .  S
N571        C579   1.348       .  A
N572        N573   1.314       .  A
N572        N574   1.317       .  A
N572       Mn578   2.204       .  S
N573        C580   1.347       .  A
N574        N575   1.341       .  A
N574       Mn600   2.277       .  S
N575        C580   1.371       .  A
N576        N577   1.332       .  A
N576       Mn578   2.255       .  S
N577        C579   1.367       .  A
Mn578      Cl602   2.538       .  S
C579        C657   1.515       .  S
N581        N582   1.310       .  A
N581        N587   1.316       .  A
N581       Mn589   2.182       .  S
N582        C590   1.346       .  A
N583        N585   1.309       .  A
N583        N584   1.305       .  A
N583       Mn601   2.158   1_455  S
N584        C591   1.344       .  A
N585        N586   1.334       .  A
N585       Mn589   2.232       .  S
N586        C591   1.365       .  A
N587        N588   1.336       .  A
N587       Mn601   2.263   1_455  S
N588        C590   1.366       .  A
Mn589      Cl602   2.551   1_455  S
C590        C654   1.511       .  S
C591        C612   1.497       .  S
N592        N593   1.331       .  A
N592        N598   1.316       .  A
N592       Mn600   2.206       .  S
N593        C603   1.361       .  A
N594        N595   1.344       .  A
N594        N596   1.317       .  A
N594       Mn601   2.240       .  S
N595        C604   1.368       .  A
N596        N597   1.302       .  A
N596       Mn600   2.213       .  S
N597        C604   1.350       .  A
N598        N599   1.308       .  A
N598       Mn601   2.198       .  S
N599        C603   1.346       .  A
Mn600      Cl602   2.556       .  S
Mn601      Cl602   2.531       .  S
C603        C605   1.495       .  S
C604        C656   1.531       .  S
C605        C606   1.365       .  D
C605       C1185   1.499       .  S
C606       C1102   1.526       .  S
C607        C608   1.365       .  D
C607       C1201   1.511       .  S
C608        C894   1.507       .  S
C609        C610   1.374       .  D
C609       C1281   1.506       .  S
C610        C878   1.502       .  S
C611        C612   1.365       .  D
C611       C1889   1.526       .  S
C612       C1169   1.503       .  S
C613        C614   1.376       .  D
C613       C1937   1.507       .  S
C614       C1857   1.526       .  S
C615        C616   1.380       .  D
C615       C1265   1.534       .  S
C616       C1217   1.533       .  S
C617        C618   1.357       .  D
C617       C1745   1.499       .  S
C618        C862   1.466       .  S
C619        C620   1.362       .  D
C619       C1470   1.488       .  S
C620       C2161   1.482       .  S
C621        C622   1.357       .  D
C621       C1633   1.487       .  S
C622       C1809   1.491       .  S
C623        C624   1.354       .  D
C623       C2177   1.483       .  S
C624       C2065   1.470       .  S
C625        C626   1.380       .  D
C625       C1761   1.537       .  S
C626       C1681   1.502       .  S
C627        C628   1.386       .  D
C627       C2206   1.545       .  S
C628       C2094   1.511       .  S
C629        C630   1.376       .  D
C629       C1518   1.471       .  S
C630       C2193   1.552       .  S
C631        C632   1.376       .  D
C631       C1825   1.535       .  S
C632        C846   1.497       .  S
C633        C634   1.379       .  D
C633       C1982   1.552       .  S
C634       C1873   1.504       .  S
C635        C636   1.379       .  D
C635       C1329   1.518       .  S
C636       C1070   1.512       .  S
C637        C638   1.385       .  D
C637       C1489   1.483       .  S
C638       C1569   1.557       .  S
C639        C640   1.362       .  D
C639       C1553   1.477       .  S
C640        C830   1.524       .  S
C641        C642   1.371       .  D
C641       C1697   1.498       .  S
C642        C814   1.511       .  S
C643        C644   1.380       .  D
C643       C1790   1.485       .  S
C644       C2033   1.530       .  S
C645        C646   1.367       .  D
C645        C782   1.535       .  S
C646        C798   1.475       .  S
C647        C648   1.376       .  D
C647       C1393   1.506       .  S
C648       C1153   1.577       .  S
C649        C650   1.365       .  D
C649       C2001   1.498       .  S
C650       C1905   1.509       .  S
C651        C652   1.364       .  D
C651       C1505   1.515       .  S
C652        C766   1.491       .  S
C653        C654   1.369       .  D
C653       C2129   1.559       .  S
C654       C1710   1.491       .  S
C655        C656   1.379       .  D
C655       C1617   1.552       .  S
C656        C750   1.500       .  S
C657        C658   1.371       .  D
C657        C718   1.504       .  S
C658        C734   1.528       .  S
C659        C660   1.384       .  D
C659       C1774   1.542       .  S
C660       C1534   1.497       .  S
C661        C662   1.373       .  D
C661        C702   1.494       .  S
C662        C689   1.529       .  S
C663        C664   1.370       .  D
C663       C1454   1.544       .  S
C664       C1729   1.478       .  S
C665        C666   1.375       .  D
C665       C1009   1.494   1_655  S
C665       C1041   1.505       .  S
C666        C897   1.540   1_655  S
C666        C913   1.539       .  S
C667        C668   1.376       .  D
C667        C961   1.539       .  S
C667        C993   1.472   1_565  S
C668        C881   1.557   1_565  S
C668        C929   1.498       .  S
C669        C670   1.381       .  D
C669        C942   1.509   1_556  S
C669        C977   1.502       .  S
C670       C1022   1.551       .  S
C670       C1057   1.517   1_556  S
C671        C672   1.371       .  D
C671        C769   1.484       .  S
C671        C801   1.536       .  S
C672        C686   1.495       .  S
C672        C865   1.536       .  S
C673        C674   1.364       .  D
C673        C737   1.496       .  S
C673        C849   1.523       .  S
C674        C785   1.501       .  S
C674        C833   1.498       .  S
C675        C676   1.387       .  D
C675        C721   1.501       .  S
C675        C753   1.553       .  S
C676        C705   1.553       .  S
C676        C817   1.502       .  S
C677        C678   1.378       .  D
C677       C2081   1.520       .  S
C678       C1585   1.530       .  S
C679        C680   1.359       .  D
C679       C1646   1.489       .  S
C680       C1598   1.522       .  S
C681        C682   1.379       .  D
C681       C2113   1.540       .  S
C682       C1665   1.480       .  S
C683        C684   1.366       .  D
C683       C2145   1.489       .  S
C684       C2049   1.498       .  S
C685        C686   1.409       .  A
C685        C690   1.417       .  A
C685        H692   1.085       .  S
C686        C687   1.407       .  A
C687        C688   1.384       .  A
C687        C694   1.512       .  S
C688        C689   1.415       .  A
C688        H693   1.073       .  S
C689        C690   1.431       .  A
C690        C691   1.505       .  S
C691        H695   1.108       .  S
C691        H696   1.103       .  S
C691        H697   1.101       .  S
C694        H698   1.100       .  S
C694        H699   1.111       .  S
C694        H700   1.111       .  S
C701        C702   1.412       .  A
C701        C706   1.434       .  A
C701        H708   1.083       .  S
C702        C703   1.393       .  A
C703        C704   1.370       .  A
C703        C710   1.507       .  S
C704        C705   1.412       .  A
C704        H709   1.076       .  S
C705        C706   1.446       .  A
C706        C707   1.502       .  S
C707        H711   1.110       .  S
C707        H712   1.110       .  S
C707        H713   1.105       .  S
C710        H714   1.099       .  S
C710        H715   1.109       .  S
C710        H716   1.106       .  S
C717        C718   1.408       .  A
C717        C722   1.410       .  A
C717        H724   1.084       .  S
C718        C719   1.416       .  A
C719        C720   1.396       .  A
C719        C726   1.500       .  S
C720        C721   1.401       .  A
C720        H725   1.084       .  S
C721        C722   1.425       .  A
C722        C723   1.508       .  S
C723        H727   1.111       .  S
C723        H728   1.109       .  S
C723        H729   1.108       .  S
C726        H730   1.111       .  S
C726        H731   1.109       .  S
C726        H732   1.111       .  S
C733        C734   1.420       .  A
C733        C738   1.415       .  A
C733        H740   1.077       .  S
C734        C735   1.422       .  A
C735        C736   1.378       .  A
C735        C742   1.494       .  S
C736        C737   1.386       .  A
C736        H741   1.084       .  S
C737        C738   1.418       .  A
C738        C739   1.502       .  S
C739        H743   1.111       .  S
C739        H744   1.106       .  S
C739        H745   1.110       .  S
C742        H746   1.104       .  S
C742        H747   1.108       .  S
C742        H748   1.102       .  S
C749        C750   1.408       .  A
C749        C754   1.420       .  A
C749        H756   1.084       .  S
C750        C751   1.402       .  A
C751        C752   1.373       .  A
C751        C758   1.515       .  S
C752        C753   1.419       .  A
C752        H757   1.070       .  S
C753        C754   1.438       .  A
C754        C755   1.506       .  S
C755        H759   1.105       .  S
C755        H760   1.109       .  S
C755        H761   1.109       .  S
C758        H762   1.110       .  S
C758        H763   1.109       .  S
C758        H764   1.111       .  S
C765        C766   1.402       .  A
C765        C770   1.381       .  A
C765        H772   1.079       .  S
C766        C767   1.417       .  A
C767        C768   1.415       .  A
C767        C774   1.507       .  S
C768        C769   1.412       .  A
C768        H773   1.084       .  S
C769        C770   1.409       .  A
C770        C771   1.505       .  S
C771        H775   1.105       .  S
C771        H776   1.096       .  S
C771        H777   1.111       .  S
C774        H778   1.101       .  S
C774        H779   1.110       .  S
C774        H780   1.111       .  S
C781        C782   1.421       .  A
C781        C786   1.415       .  A
C781        H788   1.085       .  S
C782        C783   1.427       .  A
C783        C784   1.396       .  A
C783        C790   1.486       .  S
C784        C785   1.388       .  A
C784        H789   1.075       .  S
C785        C786   1.412       .  A
C786        C787   1.502       .  S
C787        H791   1.106       .  S
C787        H792   1.110       .  S
C787        H793   1.105       .  S
C790        H794   1.101       .  S
C790        H795   1.102       .  S
C790        H796   1.112       .  S
C797        C798   1.401       .  A
C797        C802   1.414       .  A
C797        H804   1.083       .  S
C798        C799   1.405       .  A
C799        C800   1.383       .  A
C799        C806   1.513       .  S
C800        C801   1.409       .  A
C800        H805   1.069       .  S
C801        C802   1.436       .  A
C802        C803   1.494       .  S
C803        H807   1.111       .  S
C803        H808   1.087       .  S
C803        H809   1.110       .  S
C806        H810   1.109       .  S
C806        H811   1.106       .  S
C806        H812   1.110       .  S
C813        C814   1.404       .  A
C813        C818   1.399       .  A
C813        H820   1.072       .  S
C814        C815   1.422       .  A
C815        C816   1.411       .  A
C815        C822   1.503       .  S
C816        C817   1.410       .  A
C816        H821   1.084       .  S
C817        C818   1.413       .  A
C818        C819   1.508       .  S
C819        H823   1.110       .  S
C819        H824   1.110       .  S
C819        H825   1.110       .  S
C822        H826   1.099       .  S
C822        H827   1.109       .  S
C822        H828   1.111       .  S
C829        C830   1.411       .  A
C829        C834   1.403       .  A
C829        H836   1.066       .  S
C830        C831   1.416       .  A
C831        C832   1.401       .  A
C831        C838   1.506       .  S
C832        C833   1.405       .  A
C832        H837   1.081       .  S
C833        C834   1.410       .  A
C834        C835   1.505       .  S
C835        H839   1.110       .  S
C835        H840   1.110       .  S
C835        H841   1.110       .  S
C838        H842   1.110       .  S
C838        H843   1.105       .  S
C838        H844   1.110       .  S
C845        C846   1.407       .  A
C845        C850   1.418       .  A
C845        H852   1.084       .  S
C846        C847   1.415       .  A
C847        C848   1.398       .  A
C847        C854   1.508       .  S
C848        C849   1.405       .  A
C848        H853   1.069       .  S
C849        C850   1.422       .  A
C850        C851   1.504       .  S
C851        H855   1.111       .  S
C851        H856   1.107       .  S
C851        H857   1.110       .  S
C854        H858   1.110       .  S
C854        H859   1.108       .  S
C854        H860   1.111       .  S
C861        C862   1.389       .  A
C861        C866   1.403       .  A
C861        H868   1.086       .  S
C862        C863   1.402       .  A
C863        C864   1.393       .  A
C863        C870   1.507       .  S
C864        C865   1.411       .  A
C864        H869   1.074       .  S
C865        C866   1.440       .  A
C866        C867   1.493       .  S
C867        H871   1.111       .  S
C867        H872   1.094       .  S
C867        H873   1.104       .  S
C870        H874   1.105       .  S
C870        H875   1.107       .  S
C870        H876   1.109       .  S
C877        C878   1.402       .  A
C877        C882   1.421       .  A
C877        H884   1.085       .  S
C878        C879   1.400       .  A
C879        C880   1.397       .  A
C879        C886   1.507       .  S
C880        C881   1.404       .  A
C880        H885   1.059       .  S
C881        C882   1.441       .  A
C882        C883   1.487       .  S
C883        H887   1.108       .  S
C883        H888   1.101       .  S
C883        H889   1.099       .  S
C886        H890   1.104       .  S
C886        H891   1.110   1_545  S
C886        H892   1.097       .  S
C893        C894   1.411       .  A
C893        C898   1.422       .  A
C893        H900   1.082       .  S
C894        C895   1.394       .  A
C895        C896   1.387       .  A
C895        C902   1.516       .  S
C896        C897   1.407       .  A
C896        H901   1.077   1_455  S
C897        C898   1.437       .  A
C898        C899   1.497       .  S
C899        H903   1.111       .  S
C899        H904   1.110       .  S
C899        H905   1.100       .  S
C902        H906   1.108       .  S
C902        H907   1.105       .  S
C902        H908   1.107   1_455  S
C909        C910   1.399       .  A
C909        C914   1.408       .  A
C909        H916   1.072       .  S
C910        C911   1.408       .  A
C911        C912   1.411       .  A
C911        C918   1.499       .  S
C912        C913   1.416       .  A
C912        H917   1.064       .  S
C913        C914   1.409       .  A
C914        C915   1.513       .  S
C915        H919   1.108   1_655  S
C915        H920   1.111       .  S
C915        H921   1.107       .  S
C918        H922   1.104       .  S
C918        H923   1.109       .  S
C918        H924   1.111       .  S
C925        C926   1.411       .  A
C925        C930   1.402       .  A
C925        H932   1.083       .  S
C926        C927   1.440       .  A
C927        C928   1.406       .  A
C927        C934   1.489       .  S
C928        C929   1.393       .  A
C928        H933   1.085       .  S
C929        C930   1.410       .  A
C930        C931   1.501       .  S
C931        H935   1.107       .  S
C931        H936   1.099       .  S
C931        H937   1.110       .  S
C934        H938   1.104       .  S
C934        H939   1.098       .  S
C934        H940   1.096       .  S
C941        C942   1.414       .  A
C941        C946   1.425       .  A
C941        H948   1.082       .  S
C942        C943   1.405       .  A
C943        C944   1.385       .  A
C943        C950   1.514       .  S
C944        C945   1.415       .  A
C944        H949   1.069       .  S
C945        C946   1.420       .  A
C946        C947   1.499       .  S
C947        H951   1.109       .  S
C947        H952   1.100       .  S
C947        H953   1.108       .  S
C950        H954   1.107   1_554  S
C950        H955   1.108   1_554  S
C950        H956   1.111       .  S
C957        C958   1.399       .  A
C957        C962   1.400       .  A
C957        H964   1.083       .  S
C958        C959   1.411       .  A
C959        C960   1.410       .  A
C959        C966   1.509       .  S
C960        C961   1.415       .  A
C960        H965   1.059       .  S
C961        C962   1.420       .  A
C962        C963   1.500       .  S
C963        H967   1.108       .  S
C963        H968   1.106   1_565  S
C963        H969   1.107       .  S
C966        H970   1.108       .  S
C966        H971   1.108       .  S
C966        H972   1.111       .  S
C973        C974   1.403       .  A
C973        C978   1.396       .  A
C973        H980   1.075       .  S
C974        C975   1.425       .  A
C975        C976   1.415       .  A
C975        C982   1.504       .  S
C976        C977   1.407       .  A
C976        H981   1.083       .  S
C977        C978   1.409       .  A
C978        C979   1.504       .  S
C979        H983   1.108       .  S
C979        H984   1.110       .  S
C979        H985   1.107       .  S
C982        H986   1.108       .  S
C982        H987   1.110       .  S
C982        H988   1.110       .  S
C989        C990   1.403       .  A
C989        C994   1.391       .  A
C989        H996   1.080       .  S
C990        C991   1.462       .  A
C991        C992   1.420       .  A
C991        C998   1.493       .  S
C992        C993   1.391       .  A
C992        H997   1.083       .  S
C993        C994   1.395       .  A
C994        C995   1.507       .  S
C995        H999   1.104   1_545  S
C995       H1000   1.098   1_545  S
C995       H1001   1.099       .  S
C998       H1002   1.099       .  S
C998       H1003   1.096       .  S
C998       H1004   1.111       .  S
C1005      C1006   1.398       .  A
C1005      C1010   1.387       .  A
C1005      H1012   1.069       .  S
C1006      C1007   1.422       .  A
C1007      C1008   1.414       .  A
C1007      C1014   1.506       .  S
C1008      C1009   1.407       .  A
C1008      H1013   1.083       .  S
C1009      C1010   1.411       .  A
C1010      C1011   1.508       .  S
C1011      H1015   1.110       .  S
C1011      H1016   1.110       .  S
C1011      H1017   1.110       .  S
C1014      H1018   1.103       .  S
C1014      H1019   1.110       .  S
C1014      H1020   1.111       .  S
C1021      C1022   1.417       .  A
C1021      C1026   1.386       .  A
C1021      H1028   1.070   1_556  S
C1022      C1023   1.432       .  A
C1023      C1024   1.424       .  A
C1023      C1030   1.500       .  S
C1024      C1025   1.411       .  A
C1024      H1029   1.083       .  S
C1025      C1026   1.407       .  A
C1026      C1027   1.517       .  S
C1027      H1031   1.104       .  S
C1027      H1032   1.110       .  S
C1027      H1033   1.106       .  S
C1030      H1034   1.105       .  S
C1030      H1035   1.110       .  S
C1030      H1036   1.111       .  S
C1037      C1038   1.416       .  A
C1037      C1042   1.406       .  A
C1037      H1044   1.083       .  S
C1038      C1039   1.415       .  A
C1039      C1040   1.398       .  A
C1039      C1046   1.501       .  S
C1040      C1041   1.402       .  A
C1040      H1045   1.068       .  S
C1041      C1042   1.418       .  A
C1042      C1043   1.509       .  S
C1043      H1047   1.110       .  S
C1043      H1048   1.107       .  S
C1043      H1049   1.111       .  S
C1046      H1050   1.101       .  S
C1046      H1051   1.109       .  S
C1046      H1052   1.111       .  S
C1053      C1054   1.415       .  A
C1053      C1058   1.406       .  A
C1053      H1060   1.071       .  S
C1054      C1055   1.418       .  A
C1055      C1056   1.407       .  A
C1055      C1062   1.508       .  S
C1056      C1057   1.410       .  A
C1056      H1061   1.076       .  S
C1057      C1058   1.410       .  A
C1058      C1059   1.507       .  S
C1059      H1063   1.111       .  S
C1059      H1064   1.110       .  S
C1059      H1065   1.109       .  S
C1062      H1066   1.109       .  S
C1062      H1067   1.110       .  S
C1062      H1068   1.110       .  S
C1069      C1070   1.408       .  A
C1069      C1074   1.408       .  A
C1069      H1076   1.084       .  S
C1070      C1071   1.414       .  A
C1071      C1072   1.399       .  A
C1071      C1078   1.505       .  S
C1072      C1073   1.410       .  A
C1072      H1077   1.081       .  S
C1073      C1074   1.410       .  A
C1074      C1075   1.503   1_545  S
C1075      H1079   1.111       .  S
C1075      H1080   1.105       .  S
C1075      H1081   1.110   1_565  S
C1078      H1082   1.109       .  S
C1078      H1083   1.106       .  S
C1078      H1084   1.110       .  S
C1085      C1086   1.419       .  A
C1085      C1090   1.429       .  A
C1085      H1092   1.075       .  S
C1086      C1087   1.403       .  A
C1087      C1088   1.387       .  A
C1087      C1094   1.501       .  S
C1088      C1089   1.411       .  A
C1088      H1093   1.083       .  S
C1089      C1090   1.430       .  A
C1090      C1091   1.503       .  S
C1091      H1095   1.110       .  S
C1091      H1096   1.109       .  S
C1091      H1097   1.107       .  S
C1094      H1098   1.098   1_565  S
C1094      H1099   1.099       .  S
C1094      H1100   1.110       .  S
C1101      C1102   1.407       .  A
C1101      C1106   1.378       .  A
C1101      H1108   1.082       .  S
C1102      C1103   1.430       .  A
C1103      C1104   1.415       .  A
C1103      C1110   1.499       .  S
C1104      C1105   1.408       .  A
C1104      H1109   1.076       .  S
C1105      C1106   1.393       .  A
C1106      C1107   1.492       .  S
C1107      H1111   1.080   1_565  S
C1107      H1112   1.098   1_565  S
C1107      H1113   1.110       .  S
C1110      H1114   1.102       .  S
C1110      H1115   1.110       .  S
C1110      H1116   1.111       .  S
C1117      C1118   1.400       .  A
C1117      C1122   1.404       .  A
C1117      H1124   1.062       .  S
C1118      C1119   1.428       .  A
C1119      C1120   1.424       .  A
C1119      C1126   1.500   1_545  S
C1120      C1121   1.410       .  A
C1120      H1125   1.084       .  S
C1121      C1122   1.418       .  A
C1122      C1123   1.500       .  S
C1123      H1127   1.110       .  S
C1123      H1128   1.110       .  S
C1123      H1129   1.106       .  S
C1126      H1130   1.110       .  S
C1126      H1131   1.110       .  S
C1126      H1132   1.104       .  S
C1133      C1134   1.419       .  A
C1133      C1138   1.413       .  A
C1133      H1140   1.067       .  S
C1134      C1135   1.421       .  A
C1135      C1136   1.398       .  A
C1135      C1142   1.504       .  S
C1136      C1137   1.404       .  A
C1136      H1141   1.085       .  S
C1137      C1138   1.412       .  A
C1138      C1139   1.504       .  S
C1139      H1143   1.110       .  S
C1139      H1144   1.107       .  S
C1139      H1145   1.110       .  S
C1142      H1146   1.109   1_655  S
C1142      H1147   1.109   1_655  S
C1142      H1148   1.111       .  S
C1149      C1150   1.412       .  A
C1149      C1154   1.423       .  A
C1149      H1156   1.083       .  S
C1150      C1151   1.412       .  A
C1151      C1152   1.391       .  A
C1151      C1158   1.510   1_455  S
C1152      C1153   1.406       .  A
C1152      H1157   1.070       .  S
C1153      C1154   1.428       .  A
C1154      C1155   1.502       .  S
C1155      H1159   1.111       .  S
C1155      H1160   1.108       .  S
C1155      H1161   1.106       .  S
C1158      H1162   1.100       .  S
C1158      H1163   1.107       .  S
C1158      H1164   1.098       .  S
C1165      C1166   1.409       .  A
C1165      C1170   1.407       .  A
C1165      H1172   1.074       .  S
C1166      C1167   1.422       .  A
C1167      C1168   1.399       .  A
C1167      C1174   1.494       .  S
C1168      C1169   1.403       .  A
C1168      H1173   1.086       .  S
C1169      C1170   1.409       .  A
C1170      C1171   1.501       .  S
C1171      H1175   1.096       .  S
C1171      H1176   1.107       .  S
C1171      H1177   1.111       .  S
C1174      H1178   1.110       .  S
C1174      H1179   1.089       .  S
C1174      H1180   1.108       .  S
C1181      C1182   1.404       .  A
C1181      C1186   1.396       .  A
C1181      H1188   1.078       .  S
C1182      C1183   1.416       .  A
C1183      C1184   1.406       .  A
C1183      C1190   1.503       .  S
C1184      C1185   1.403       .  A
C1184      H1189   1.078       .  S
C1185      C1186   1.417       .  A
C1186      C1187   1.512       .  S
C1187      H1191   1.110       .  S
C1187      H1192   1.106       .  S
C1187      H1193   1.104       .  S
C1190      H1194   1.110       .  S
C1190      H1195   1.110       .  S
C1190      H1196   1.111       .  S
C1197      C1198   1.414       .  A
C1197      C1202   1.407       .  A
C1197      H1204   1.080       .  S
C1198      C1199   1.416       .  A
C1199      C1200   1.400       .  A
C1199      C1206   1.503       .  S
C1200      C1201   1.404       .  A
C1200      H1205   1.083       .  S
C1201      C1202   1.413       .  A
C1202      C1203   1.503       .  S
C1203      H1207   1.111       .  S
C1203      H1208   1.100       .  S
C1203      H1209   1.110       .  S
C1206      H1210   1.106       .  S
C1206      H1211   1.111       .  S
C1206      H1212   1.110       .  S
C1213      C1214   1.415       .  A
C1213      C1218   1.432       .  A
C1213      H1220   1.082       .  S
C1214      C1215   1.395       .  A
C1215      C1216   1.378       .  A
C1215      C1222   1.498   1_545  S
C1216      C1217   1.405       .  A
C1216      H1221   1.082       .  S
C1217      C1218   1.437       .  A
C1218      C1219   1.499       .  S
C1219      H1223   1.106       .  S
C1219      H1224   1.107       .  S
C1219      H1225   1.111       .  S
C1222      H1226   1.091       .  S
C1222      H1227   1.107   1_565  S
C1222      H1228   1.106       .  S
C1229      C1230   1.416       .  A
C1229      C1234   1.420       .  A
C1229      H1236   1.080       .  S
C1230      C1231   1.413       .  A
C1231      C1232   1.399       .  A
C1231      C1238   1.500   1_545  S
C1232      C1233   1.398       .  A
C1232      H1237   1.081       .  S
C1233      C1234   1.421       .  A
C1234      C1235   1.503       .  S
C1235      H1239   1.111       .  S
C1235      H1240   1.104       .  S
C1235      H1241   1.109       .  S
C1238      H1242   1.107   1_565  S
C1238      H1243   1.110       .  S
C1238      H1244   1.098       .  S
C1245      C1246   1.418       .  A
C1245      C1250   1.433       .  A
C1245      H1252   1.082       .  S
C1246      C1247   1.388       .  A
C1247      C1248   1.380       .  A
C1247      C1254   1.498       .  S
C1248      C1249   1.410       .  A
C1248      H1253   1.083       .  S
C1249      C1250   1.432       .  A
C1250      C1251   1.506       .  S
C1251      H1255   1.111       .  S
C1251      H1256   1.110       .  S
C1251      H1257   1.102       .  S
C1254      H1258   1.108       .  S
C1254      H1259   1.107       .  S
C1254      H1260   1.086   1_565  S
C1261      C1262   1.412       .  A
C1261      C1266   1.409       .  A
C1261      H1268   1.082       .  S
C1262      C1263   1.412       .  A
C1263      C1264   1.411       .  A
C1263      C1270   1.505       .  S
C1264      C1265   1.421       .  A
C1264      H1269   1.083       .  S
C1265      C1266   1.417       .  A
C1266      C1267   1.503       .  S
C1267      H1271   1.107       .  S
C1267      H1272   1.106       .  S
C1267      H1273   1.106       .  S
C1270      H1274   1.103       .  S
C1270      H1275   1.111       .  S
C1270      H1276   1.111       .  S
C1277      C1278   1.403       .  A
C1277      C1282   1.392       .  A
C1277      H1284   1.075       .  S
C1278      C1279   1.423       .  A
C1279      C1280   1.412       .  A
C1279      C1286   1.507       .  S
C1280      C1281   1.411       .  A
C1280      H1285   1.085       .  S
C1281      C1282   1.408       .  A
C1282      C1283   1.502       .  S
C1283      H1287   1.110       .  S
C1283      H1288   1.103       .  S
C1283      H1289   1.107       .  S
C1286      H1290   1.104       .  S
C1286      H1291   1.110       .  S
C1286      H1292   1.106       .  S
C1293      C1294   1.404       .  A
C1293      C1298   1.414       .  A
C1293      H1300   1.085       .  S
C1294      C1295   1.415       .  A
C1295      C1296   1.408       .  A
C1295      C1302   1.506       .  S
C1296      C1297   1.404       .  A
C1296      H1301   1.084       .  S
C1297      C1298   1.436       .  A
C1298      C1299   1.497       .  S
C1299      H1303   1.110       .  S
C1299      H1304   1.109       .  S
C1299      H1305   1.099       .  S
C1302      H1306   1.108       .  S
C1302      H1307   1.109       .  S
C1302      H1308   1.111       .  S
C1309      C1310   1.403       .  A
C1309      C1314   1.391       .  A
C1309      H1316   1.078   1_455  S
C1310      C1311   1.426       .  A
C1311      C1312   1.422       .  A
C1311      C1318   1.497       .  S
C1312      C1313   1.414       .  A
C1312      H1317   1.083       .  S
C1313      C1314   1.409       .  A
C1314      C1315   1.508       .  S
C1315      H1319   1.096   1_455  S
C1315      H1320   1.083       .  S
C1315      H1321   1.110       .  S
C1318      H1322   1.107       .  S
C1318      H1323   1.106       .  S
C1318      H1324   1.105       .  S
C1325      C1326   1.402       .  A
C1325      C1330   1.395       .  A
C1325      H1332   1.069       .  S
C1326      C1327   1.406       .  A
C1327      C1328   1.402       .  A
C1327      C1334   1.508       .  S
C1328      C1329   1.413       .  A
C1328      H1333   1.069       .  S
C1329      C1330   1.409       .  A
C1330      C1331   1.501       .  S
C1331      H1335   1.106       .  S
C1331      H1336   1.108       .  S
C1331      H1337   1.108       .  S
C1334      H1338   1.109       .  S
C1334      H1339   1.109       .  S
C1334      H1340   1.111       .  S
C1341      C1342   1.416       .  A
C1341      C1346   1.420       .  A
C1341      H1348   1.078       .  S
C1342      C1343   1.396       .  A
C1343      C1344   1.387       .  A
C1343      C1350   1.516       .  S
C1344      C1345   1.420       .  A
C1344      H1349   1.061       .  S
C1345      C1346   1.423       .  A
C1346      C1347   1.506       .  S
C1347      H1351   1.108       .  S
C1347      H1352   1.098       .  S
C1347      H1353   1.107       .  S
C1350      H1354   1.110       .  S
C1350      H1355   1.108       .  S
C1350      H1356   1.111       .  S
C1357      C1358   1.394       .  A
C1357      C1362   1.397       .  A
C1357      H1364   1.086       .  S
C1358      C1359   1.420       .  A
C1359      C1360   1.396       .  A
C1359      C1366   1.502       .  S
C1360      C1361   1.403       .  A
C1360      H1365   1.086       .  S
C1361      C1362   1.438       .  A
C1362      C1363   1.509       .  S
C1363      H1367   1.102       .  S
C1363      H1368   1.103       .  S
C1363      H1369   1.109       .  S
C1366      H1370   1.110       .  S
C1366      H1371   1.102       .  S
C1366      H1372   1.108       .  S
C1373      C1374   1.421       .  A
C1373      C1378   1.393       .  A
C1373      H1380   1.068   1_556  S
C1374      C1375   1.430       .  A
C1375      C1376   1.428       .  A
C1375      C1382   1.495       .  S
C1376      C1377   1.414       .  A
C1376      H1381   1.083       .  S
C1377      C1378   1.401       .  A
C1378      C1379   1.531       .  S
C1379      H1383   1.103       .  S
C1379      H1384   1.098       .  S
C1379      H1385   1.106       .  S
C1382      H1386   1.108       .  S
C1382      H1387   1.104       .  S
C1382      H1388   1.111       .  S
C1389      C1390   1.405       .  A
C1389      C1394   1.396       .  A
C1389      H1396   1.078       .  S
C1390      C1391   1.416       .  A
C1391      C1392   1.410       .  A
C1391      C1398   1.504       .  S
C1392      C1393   1.412       .  A
C1392      H1397   1.079       .  S
C1393      C1394   1.410       .  A
C1394      C1395   1.514       .  S
C1395      H1399   1.109       .  S
C1395      H1400   1.107       .  S
C1395      H1401   1.107       .  S
C1398      H1402   1.109       .  S
C1398      H1403   1.110       .  S
C1398      H1404   1.110       .  S
C1405      C1406   1.392       .  A
C1405      C1410   1.392       .  A
C1405      H1412   1.084       .  S
C1406      C1407   1.424       .  A
C1407      C1408   1.420       .  A
C1407      C1414   1.506       .  S
C1408      C1409   1.415       .  A
C1408      H1413   1.079       .  S
C1409      C1410   1.417       .  A
C1410      C1411   1.495       .  S
C1411      H1415   1.109   1_556  S
C1411      H1416   1.107       .  S
C1411      H1417   1.105       .  S
C1414      H1418   1.109       .  S
C1414      H1419   1.110       .  S
C1414      H1420   1.110       .  S
C1421      C1422   1.412       .  A
C1421      C1426   1.397       .  A
C1421      H1428   1.055       .  S
C1422      C1423   1.407       .  A
C1423      C1424   1.402       .  A
C1423      C1430   1.504       .  S
C1424      C1425   1.404       .  A
C1424      H1429   1.084       .  S
C1425      C1426   1.409       .  A
C1426      C1427   1.509       .  S
C1427      H1431   1.110       .  S
C1427      H1432   1.107       .  S
C1427      H1433   1.110       .  S
C1430      H1434   1.108       .  S
C1430      H1435   1.096   1_554  S
C1430      H1436   1.111       .  S
C1437      C1438   1.409       .  A
C1437      C1442   1.425       .  A
C1437      H1444   1.082       .  S
C1438      C1439   1.406       .  A
C1439      C1440   1.390       .  A
C1439      C1446   1.506       .  S
C1440      C1441   1.414       .  A
C1440      H1445   1.075       .  S
C1441      C1442   1.422       .  A
C1442      C1443   1.494       .  S
C1443      H1447   1.106       .  S
C1443      H1448   1.106       .  S
C1443      H1449   1.107       .  S
C1446      H1450   1.101   1_556  S
C1446      H1451   1.108   1_556  S
C1446      H1452   1.110       .  S
C1453      C1454   1.421       .  A
C1453      C1458   1.400       .  A
C1453      H1460   1.074       .  S
C1454      C1455   1.442       .  A
C1455      C1456   1.401       .  A
C1455      C1462   1.504       .  S
C1456      C1457   1.393       .  A
C1456      H1461   1.085       .  S
C1457      C1458   1.402       .  A
C1458      C1459   1.502       .  S
C1459      H1463   1.111       .  S
C1459      H1464   1.100       .  S
C1459      H1465   1.111       .  S
C1462      H1466   1.103       .  S
C1462      H1467   1.097       .  S
C1462      H1468   1.111       .  S
C1469      C1470   1.406       .  A
C1469      C1474   1.403       .  A
C1469      H1476   1.084       .  S
C1470      C1471   1.408       .  A
C1471      C1472   1.394       .  A
C1471      C1478   1.496       .  S
C1472      C1473   1.402       .  A
C1472      H1477   1.080       .  S
C1473      C1474   1.417       .  A
C1474      C1475   1.504       .  S
C1475      H1479   1.108       .  S
C1475      H1480   1.102       .  S
C1475      H1481   1.110       .  S
C1478      H1482   1.095       .  S
C1478      H1483   1.110       .  S
C1478      H1484   1.096       .  S
C1485      C1486   1.412       .  A
C1485      C1490   1.406       .  A
C1485      H1492   1.084       .  S
C1486      C1487   1.419       .  A
C1487      C1488   1.408       .  A
C1487      C1494   1.504       .  S
C1488      C1489   1.405       .  A
C1488      H1493   1.084       .  S
C1489      C1490   1.414       .  A
C1490      C1491   1.506       .  S
C1491      H1495   1.111       .  S
C1491      H1496   1.110       .  S
C1491      H1497   1.108       .  S
C1494      H1498   1.107       .  S
C1494      H1499   1.107       .  S
C1494      H1500   1.112       .  S
C1501      C1502   1.416       .  A
C1501      C1506   1.416       .  A
C1501      H1508   1.079       .  S
C1502      C1503   1.397       .  A
C1503      C1504   1.374       .  A
C1503      C1510   1.512       .  S
C1504      C1505   1.416       .  A
C1504      H1509   1.070       .  S
C1505      C1506   1.420       .  A
C1506      C1507   1.502       .  S
C1507      H1511   1.111       .  S
C1507      H1512   1.110       .  S
C1507      H1513   1.107       .  S
C1510      H1514   1.095       .  S
C1510      H1515   1.106       .  S
C1510      H1516   1.111       .  S
C1517      C1518   1.398       .  A
C1517      C1522   1.400       .  A
C1517      H1524   1.082       .  S
C1518      C1519   1.404       .  A
C1519      C1520   1.400       .  A
C1519      C1526   1.508       .  S
C1520      C1521   1.415       .  A
C1520      H1525   1.076       .  S
C1521      C1522   1.427       .  A
C1522      C1523   1.503       .  S
C1523      H1527   1.111       .  S
C1523      H1528   1.107       .  S
C1523      H1529   1.098       .  S
C1526      H1530   1.107       .  S
C1526      H1531   1.110       .  S
C1526      H1532   1.110       .  S
C1533      C1534   1.408       .  A
C1533      C1538   1.393       .  A
C1533      H1540   1.081       .  S
C1534      C1535   1.413       .  A
C1535      C1536   1.405       .  A
C1535      C1542   1.492       .  S
C1536      C1537   1.403       .  A
C1536      H1541   1.083       .  S
C1537      C1538   1.416       .  A
C1538      C1539   1.507       .  S
C1539      H1543   1.111       .  S
C1539      H1544   1.101       .  S
C1539      H1545   1.111       .  S
C1542      H1546   1.106       .  S
C1542      H1547   1.109       .  S
C1542      H1548   1.109       .  S
C1549      C1550   1.410       .  A
C1549      C1554   1.400       .  A
C1549      H1556   1.063       .  S
C1550      C1551   1.417       .  A
C1551      C1552   1.396       .  A
C1551      C1558   1.502       .  S
C1552      C1553   1.398       .  A
C1552      H1557   1.085       .  S
C1553      C1554   1.407       .  A
C1554      C1555   1.504       .  S
C1555      H1559   1.110       .  S
C1555      H1560   1.110       .  S
C1555      H1561   1.106       .  S
C1558      H1562   1.110       .  S
C1558      H1563   1.108       .  S
C1558      H1564   1.111       .  S
C1565      C1566   1.389       .  A
C1565      C1570   1.387       .  A
C1565      H1572   1.085       .  S
C1566      C1567   1.406       .  A
C1567      C1568   1.414       .  A
C1567      C1574   1.506       .  S
C1568      C1569   1.428       .  A
C1568      H1573   1.062       .  S
C1569      C1570   1.438       .  A
C1570      C1571   1.503       .  S
C1571      H1575   1.113       .  S
C1571      H1576   1.099       .  S
C1571      H1577   1.105       .  S
C1574      H1578   1.110       .  S
C1574      H1579   1.108       .  S
C1574      H1580   1.110       .  S
C1581      C1582   1.424       .  A
C1581      C1586   1.424       .  A
C1581      H1588   1.084       .  S
C1582      C1583   1.417       .  A
C1583      C1584   1.419       .  A
C1583      C1590   1.505       .  S
C1584      C1585   1.413       .  A
C1584      H1589   1.081       .  S
C1585      C1586   1.417       .  A
C1586      C1587   1.506       .  S
C1587      H1591   1.111       .  S
C1587      H1592   1.108       .  S
C1587      H1593   1.110       .  S
C1590      H1594   1.105       .  S
C1590      H1595   1.108       .  S
C1590      H1596   1.104       .  S
C1597      C1598   1.403       .  A
C1597      C1602   1.377       .  A
C1597      H1604   1.084       .  S
C1598      C1599   1.435       .  A
C1599      C1600   1.434       .  A
C1599      C1606   1.503       .  S
C1600      C1601   1.416       .  A
C1600      H1605   1.082       .  S
C1601      C1602   1.379       .  A
C1602      C1603   1.501       .  S
C1603      H1607   1.091       .  S
C1603      H1608   1.092       .  S
C1603      H1609   1.102       .  S
C1606      H1610   1.104       .  S
C1606      H1611   1.110       .  S
C1606      H1612   1.111       .  S
C1613      C1614   1.408       .  A
C1613      C1618   1.418       .  A
C1613      H1620   1.079       .  S
C1614      C1615   1.414       .  A
C1615      C1616   1.403       .  A
C1615      C1622   1.507       .  S
C1616      C1617   1.415       .  A
C1616      H1621   1.075       .  S
C1617      C1618   1.427       .  A
C1618      C1619   1.502       .  S
C1619      H1623   1.110       .  S
C1619      H1624   1.107       .  S
C1619      H1625   1.107       .  S
C1622      H1626   1.110       .  S
C1622      H1627   1.102       .  S
C1622      H1628   1.109       .  S
C1629      C1630   1.401       .  A
C1629      C1634   1.393       .  A
C1629      H1636   1.071       .  S
C1630      C1631   1.421       .  A
C1631      C1632   1.399       .  A
C1631      C1638   1.500       .  S
C1632      C1633   1.401       .  A
C1632      H1637   1.081       .  S
C1633      C1634   1.410       .  A
C1634      C1635   1.506       .  S
C1635      H1639   1.110       .  S
C1635      H1640   1.110       .  S
C1635      H1641   1.108       .  S
C1638      H1642   1.098       .  S
C1638      H1643   1.111       .  S
C1638      H1644   1.106       .  S
C1645      C1646   1.403       .  A
C1645      C1650   1.391       .  A
C1645      H1652   1.082       .  S
C1646      C1647   1.416       .  A
C1647      C1648   1.404       .  A
C1647      C1654   1.506       .  S
C1648      C1649   1.408       .  A
C1648      H1653   1.081       .  S
C1649      C1650   1.415       .  A
C1650      C1651   1.506       .  S
C1651      H1655   1.109       .  S
C1651      H1656   1.100       .  S
C1651      H1657   1.103       .  S
C1654      H1658   1.110       .  S
C1654      H1659   1.107       .  S
C1654      H1660   1.110       .  S
C1661      C1662   1.408       .  A
C1661      C1666   1.399       .  A
C1661      H1668   1.079       .  S
C1662      C1663   1.416       .  A
C1663      C1664   1.400       .  A
C1663      C1670   1.507       .  S
C1664      C1665   1.407       .  A
C1664      H1669   1.082       .  S
C1665      C1666   1.407       .  A
C1666      C1667   1.505       .  S
C1667      H1671   1.111       .  S
C1667      H1672   1.110       .  S
C1667      H1673   1.103       .  S
C1670      H1674   1.103       .  S
C1670      H1675   1.110       .  S
C1670      H1676   1.111       .  S
C1677      C1678   1.418       .  A
C1677      C1682   1.425       .  A
C1677      H1684   1.080       .  S
C1678      C1679   1.400       .  A
C1679      C1680   1.373       .  A
C1679      C1686   1.503       .  S
C1680      C1681   1.401       .  A
C1680      H1685   1.077       .  S
C1681      C1682   1.429       .  A
C1682      C1683   1.503       .  S
C1683      H1687   1.111       .  S
C1683      H1688   1.108       .  S
C1683      H1689   1.110       .  S
C1686      H1690   1.101       .  S
C1686      H1691   1.097       .  S
C1686      H1692   1.111       .  S
C1693      C1694   1.412       .  A
C1693      C1698   1.409       .  A
C1693      H1700   1.069       .  S
C1694      C1695   1.417       .  A
C1695      C1696   1.401       .  A
C1695      C1702   1.507       .  S
C1696      C1697   1.404       .  A
C1696      H1701   1.081       .  S
C1697      C1698   1.414       .  A
C1698      C1699   1.507       .  S
C1699      H1703   1.110       .  S
C1699      H1704   1.108       .  S
C1699      H1705   1.111       .  S
C1702      H1706   1.110       .  S
C1702      H1707   1.110       .  S
C1702      H1708   1.110       .  S
C1709      C1710   1.397       .  A
C1709      C1714   1.396       .  A
C1709      H1716   1.086       .  S
C1710      C1711   1.420       .  A
C1711      C1712   1.410       .  A
C1711      C1718   1.512       .  S
C1712      C1713   1.411       .  A
C1712      H1717   1.084       .  S
C1713      C1714   1.426       .  A
C1714      C1715   1.501       .  S
C1715      H1719   1.109       .  S
C1715      H1720   1.110       .  S
C1715      H1721   1.095       .  S
C1718      H1722   1.105       .  S
C1718      H1723   1.110       .  S
C1718      H1724   1.110       .  S
C1725      C1726   1.414       .  A
C1725      C1730   1.368       .  A
C1725      H1732   1.065       .  S
C1726      C1727   1.432       .  A
C1727      C1728   1.420       .  A
C1727      C1734   1.502       .  S
C1728      C1729   1.408       .  A
C1728      H1733   1.083       .  S
C1729      C1730   1.405       .  A
C1730      C1731   1.521       .  S
C1731      H1735   1.111       .  S
C1731      H1736   1.109       .  S
C1731      H1737   1.110       .  S
C1734      H1738   1.109       .  S
C1734      H1739   1.108       .  S
C1734      H1740   1.111       .  S
C1741      C1742   1.408       .  A
C1741      C1746   1.399       .  A
C1741      H1748   1.081       .  S
C1742      C1743   1.426       .  A
C1743      C1744   1.410       .  A
C1743      C1750   1.505       .  S
C1744      C1745   1.402       .  A
C1744      H1749   1.077       .  S
C1745      C1746   1.410       .  A
C1746      C1747   1.501       .  S
C1747      H1751   1.107       .  S
C1747      H1752   1.104       .  S
C1747      H1753   1.111       .  S
C1750      H1754   1.111       .  S
C1750      H1755   1.099       .  S
C1750      H1756   1.111       .  S
C1757      C1758   1.382       .  A
C1757      C1762   1.380       .  A
C1757      H1764   1.081       .  S
C1758      C1759   1.411       .  A
C1759      C1760   1.416       .  A
C1759      C1766   1.506       .  S
C1760      C1761   1.417       .  A
C1760      H1765   1.072       .  S
C1761      C1762   1.439       .  A
C1762      C1763   1.509       .  S
C1763      H1767   1.112       .  S
C1763      H1768   1.102       .  S
C1763      H1769   1.100       .  S
C1766      H1770   1.109       .  S
C1766      H1771   1.108       .  S
C1766      H1772   1.111       .  S
C1773      C1774   1.425       .  A
C1773      C1778   1.386       .  A
C1773      H1780   1.071       .  S
C1774      C1775   1.416       .  A
C1775      C1776   1.413       .  A
C1775      C1782   1.502       .  S
C1776      C1777   1.415       .  A
C1776      H1781   1.077       .  S
C1777      C1778   1.400       .  A
C1778      C1779   1.508       .  S
C1779      H1783   1.110       .  S
C1779      H1784   1.099       .  S
C1779      H1785   1.111       .  S
C1782      H1786   1.107       .  S
C1782      H1787   1.108       .  S
C1782      H1788   1.109       .  S
C1789      C1790   1.403       .  A
C1789      C1794   1.400       .  A
C1789      H1796   1.082       .  S
C1790      C1791   1.404       .  A
C1791      C1792   1.399       .  A
C1791      C1798   1.495       .  S
C1792      C1793   1.406       .  A
C1792      H1797   1.062       .  S
C1793      C1794   1.408       .  A
C1794      C1795   1.495       .  S
C1795      H1799   1.110       .  S
C1795      H1800   1.109       .  S
C1795      H1801   1.096       .  S
C1798      H1802   1.109       .  S
C1798      H1803   1.107       .  S
C1798      H1804   1.111       .  S
C1805      C1806   1.414       .  A
C1805      C1810   1.399       .  A
C1805      H1812   1.059       .  S
C1806      C1807   1.413       .  A
C1807      C1808   1.399       .  A
C1807      C1814   1.505       .  S
C1808      C1809   1.401       .  A
C1808      H1813   1.073       .  S
C1809      C1810   1.406       .  A
C1810      C1811   1.509       .  S
C1811      H1815   1.110       .  S
C1811      H1816   1.110       .  S
C1811      H1817   1.108       .  S
C1814      H1818   1.111       .  S
C1814      H1819   1.109       .  S
C1814      H1820   1.110       .  S
C1821      C1822   1.409       .  A
C1821      C1826   1.407       .  A
C1821      H1828   1.074       .  S
C1822      C1823   1.403       .  A
C1823      C1824   1.386       .  A
C1823      C1830   1.509       .  S
C1824      C1825   1.424       .  A
C1824      H1829   1.074       .  S
C1825      C1826   1.417       .  A
C1826      C1827   1.500       .  S
C1827      H1831   1.109       .  S
C1827      H1832   1.109       .  S
C1827      H1833   1.106       .  S
C1830      H1834   1.111       .  S
C1830      H1835   1.099       .  S
C1830      H1836   1.111       .  S
C1837      C1838   1.409       .  A
C1837      C1842   1.391       .  A
C1837      H1844   1.065       .  S
C1838      C1839   1.432       .  A
C1839      C1840   1.417       .  A
C1839      C1846   1.505       .  S
C1840      C1841   1.406       .  A
C1840      H1845   1.083       .  S
C1841      C1842   1.392       .  A
C1842      C1843   1.505       .  S
C1843      H1847   1.110       .  S
C1843      H1848   1.103       .  S
C1843      H1849   1.111       .  S
C1846      H1850   1.106       .  S
C1846      H1851   1.109       .  S
C1846      H1852   1.110       .  S
C1853      C1854   1.405       .  A
C1853      C1858   1.413       .  A
C1853      H1860   1.068       .  S
C1854      C1855   1.412       .  A
C1855      C1856   1.412       .  A
C1855      C1862   1.501   1_545  S
C1856      C1857   1.409       .  A
C1856      H1861   1.083       .  S
C1857      C1858   1.421       .  A
C1858      C1859   1.496       .  S
C1859      H1863   1.110       .  S
C1859      H1864   1.107       .  S
C1859      H1865   1.105       .  S
C1862      H1866   1.107       .  S
C1862      H1867   1.110       .  S
C1862      H1868   1.110       .  S
C1869      C1870   1.409       .  A
C1869      C1874   1.408       .  A
C1869      H1876   1.081       .  S
C1870      C1871   1.413       .  A
C1871      C1872   1.396       .  A
C1871      C1878   1.494       .  S
C1872      C1873   1.395       .  A
C1872      H1877   1.083       .  S
C1873      C1874   1.420       .  A
C1874      C1875   1.504       .  S
C1875      H1879   1.109       .  S
C1875      H1880   1.110       .  S
C1875      H1881   1.109       .  S
C1878      H1882   1.101       .  S
C1878      H1883   1.108   1_545  S
C1878      H1884   1.108   1_545  S
C1885      C1886   1.411       .  A
C1885      C1890   1.419       .  A
C1885      H1892   1.082       .  S
C1886      C1887   1.390       .  A
C1887      C1888   1.379       .  A
C1887      C1894   1.501       .  S
C1888      C1889   1.412       .  A
C1888      H1893   1.081       .  S
C1889      C1890   1.431       .  A
C1890      C1891   1.503       .  S
C1891      H1895   1.110       .  S
C1891      H1896   1.108       .  S
C1891      H1897   1.111       .  S
C1894      H1898   1.091   1_565  S
C1894      H1899   1.107       .  S
C1894      H1900   1.110       .  S
C1901      C1902   1.414       .  A
C1901      C1906   1.379       .  A
C1901      H1908   1.070   1_455  S
C1902      C1903   1.433       .  A
C1903      C1904   1.421       .  A
C1903      C1910   1.502       .  S
C1904      C1905   1.411       .  A
C1904      H1909   1.083       .  S
C1905      C1906   1.398       .  A
C1906      C1907   1.511       .  S
C1907      H1911   1.110   1_455  S
C1907      H1912   1.110       .  S
C1907      H1913   1.109   1_455  S
C1910      H1914   1.107       .  S
C1910      H1915   1.110       .  S
C1910      H1916   1.110       .  S
C1917      C1918   1.403       .  A
C1917      C1922   1.411       .  A
C1917      H1924   1.082       .  S
C1918      C1919   1.392       .  A
C1919      C1920   1.390       .  A
C1919      C1926   1.504       .  S
C1920      C1921   1.416       .  A
C1920      H1925   1.081       .  S
C1921      C1922   1.432       .  A
C1922      C1923   1.493       .  S
C1923      H1927   1.112       .  S
C1923      H1928   1.104       .  S
C1923      H1929   1.108       .  S
C1926      H1930   1.110       .  S
C1926      H1931   1.087   1_655  S
C1926      H1932   1.108       .  S
C1933      C1934   1.405       .  A
C1933      C1938   1.407       .  A
C1933      H1940   1.084       .  S
C1934      C1935   1.413       .  A
C1935      C1936   1.393       .  A
C1935      C1942   1.510       .  S
C1936      C1937   1.400       .  A
C1936      H1941   1.079       .  S
C1937      C1938   1.423       .  A
C1938      C1939   1.508       .  S
C1939      H1943   1.110       .  S
C1939      H1944   1.107       .  S
C1939      H1945   1.110       .  S
C1942      H1946   1.109       .  S
C1942      H1947   1.105   1_455  S
C1942      H1948   1.111       .  S
C1949      C1950   1.391       .  A
C1949      C1954   1.388       .  A
C1949      H1956   1.065       .  S
C1950      C1951   1.421       .  A
C1951      C1952   1.419       .  A
C1951      C1958   1.503       .  S
C1952      C1953   1.416       .  A
C1952      H1957   1.082       .  S
C1953      C1954   1.395       .  A
C1954      C1955   1.509       .  S
C1955      H1959   1.111       .  S
C1955      H1960   1.109       .  S
C1955      H1961   1.110       .  S
C1958      H1962   1.110       .  S
C1958      H1963   1.107       .  S
C1958      H1964   1.110       .  S
C1965      C1966   1.401       .  A
C1965      C1970   1.393       .  A
C1965      H1972   1.076       .  S
C1966      C1967   1.417       .  A
C1967      C1968   1.413       .  A
C1967      C1974   1.502       .  S
C1968      C1969   1.413       .  A
C1968      H1973   1.081       .  S
C1969      C1970   1.410       .  A
C1970      C1971   1.508       .  S
C1971      H1975   1.106       .  S
C1971      H1976   1.110       .  S
C1971      H1977   1.109       .  S
C1974      H1978   1.106       .  S
C1974      H1979   1.105       .  S
C1974      H1980   1.107       .  S
C1981      C1982   1.419       .  A
C1981      C1986   1.412       .  A
C1981      H1988   1.062       .  S
C1982      C1983   1.418       .  A
C1983      C1984   1.402       .  A
C1983      C1990   1.498       .  S
C1984      C1985   1.403       .  A
C1984      H1989   1.081       .  S
C1985      C1986   1.406       .  A
C1986      C1987   1.503       .  S
C1987      H1991   1.104       .  S
C1987      H1992   1.109       .  S
C1987      H1993   1.110       .  S
C1990      H1994   1.110       .  S
C1990      H1995   1.109       .  S
C1990      H1996   1.108       .  S
C1997      C1998   1.409       .  A
C1997      C2002   1.399       .  A
C1997      H2004   1.062       .  S
C1998      C1999   1.416       .  A
C1999      C2000   1.394       .  A
C1999      C2006   1.494       .  S
C2000      C2001   1.401       .  A
C2000      H2005   1.082       .  S
C2001      C2002   1.410       .  A
C2002      C2003   1.513       .  S
C2003      H2007   1.110       .  S
C2003      H2008   1.110       .  S
C2003      H2009   1.104       .  S
C2006      H2010   1.103       .  S
C2006      H2011   1.108       .  S
C2006      H2012   1.111       .  S
C2013      C2014   1.409       .  A
C2013      C2018   1.401       .  A
C2013      H2020   1.068       .  S
C2014      C2015   1.408       .  A
C2015      C2016   1.393       .  A
C2015      C2022   1.494       .  S
C2016      C2017   1.400       .  A
C2016      H2021   1.073       .  S
C2017      C2018   1.413       .  A
C2018      C2019   1.507       .  S
C2019      H2023   1.108       .  S
C2019      H2024   1.110       .  S
C2019      H2025   1.109       .  S
C2022      H2026   1.104       .  S
C2022      H2027   1.109       .  S
C2022      H2028   1.109       .  S
C2029      C2030   1.395       .  A
C2029      C2034   1.401       .  A
C2029      H2036   1.085       .  S
C2030      C2031   1.408       .  A
C2031      C2032   1.409       .  A
C2031      C2038   1.503       .  S
C2032      C2033   1.419       .  A
C2032      H2037   1.075       .  S
C2033      C2034   1.427       .  A
C2034      C2035   1.492       .  S
C2035      H2039   1.108       .  S
C2035      H2040   1.105       .  S
C2035      H2041   1.104       .  S
C2038      H2042   1.109       .  S
C2038      H2043   1.103       .  S
C2038      H2044   1.109       .  S
C2045      C2046   1.405       .  A
C2045      C2050   1.407       .  A
C2045      H2052   1.068       .  S
C2046      C2047   1.421       .  A
C2047      C2048   1.406       .  A
C2047      C2054   1.504       .  S
C2048      C2049   1.402       .  A
C2048      H2053   1.082       .  S
C2049      C2050   1.414       .  A
C2050      C2051   1.500       .  S
C2051      H2055   1.110       .  S
C2051      H2056   1.104       .  S
C2051      H2057   1.107       .  S
C2054      H2058   1.107       .  S
C2054      H2059   1.110       .  S
C2054      H2060   1.110       .  S
C2061      C2062   1.406       .  A
C2061      C2066   1.393       .  A
C2061      H2068   1.075       .  S
C2062      C2063   1.423       .  A
C2063      C2064   1.397       .  A
C2063      C2070   1.503       .  S
C2064      C2065   1.398       .  A
C2064      H2069   1.081       .  S
C2065      C2066   1.406       .  A
C2066      C2067   1.509       .  S
C2067      H2071   1.110       .  S
C2067      H2072   1.107       .  S
C2067      H2073   1.108       .  S
C2070      H2074   1.094       .  S
C2070      H2075   1.110       .  S
C2070      H2076   1.111       .  S
C2077      C2078   1.408       .  A
C2077      C2082   1.409       .  A
C2077      H2084   1.080       .  S
C2078      C2079   1.403       .  A
C2079      C2080   1.377       .  A
C2079      C2086   1.505       .  S
C2080      C2081   1.410       .  A
C2080      H2085   1.067       .  S
C2081      C2082   1.419       .  A
C2082      C2083   1.493       .  S
C2083      H2087   1.110       .  S
C2083      H2088   1.098       .  S
C2083      H2089   1.107       .  S
C2086      H2090   1.098       .  S
C2086      H2091   1.091       .  S
C2086      H2092   1.111       .  S
C2093      C2094   1.405       .  A
C2093      C2098   1.414       .  A
C2093      H2100   1.084       .  S
C2094      C2095   1.421       .  A
C2095      C2096   1.405       .  A
C2095      C2102   1.509       .  S
C2096      C2097   1.404       .  A
C2096      H2101   1.082       .  S
C2097      C2098   1.423       .  A
C2098      C2099   1.498       .  S
C2099      H2103   1.111       .  S
C2099      H2104   1.109       .  S
C2099      H2105   1.103       .  S
C2102      H2106   1.106       .  S
C2102      H2107   1.109       .  S
C2102      H2108   1.109       .  S
C2109      C2110   1.411       .  A
C2109      C2114   1.414       .  A
C2109      H2116   1.073       .  S
C2110      C2111   1.404       .  A
C2111      C2112   1.391       .  A
C2111      C2118   1.510       .  S
C2112      C2113   1.425       .  A
C2112      H2117   1.076       .  S
C2113      C2114   1.419       .  A
C2114      C2115   1.502       .  S
C2115      H2119   1.111       .  S
C2115      H2120   1.108       .  S
C2115      H2121   1.109       .  S
C2118      H2122   1.104       .  S
C2118      H2123   1.110       .  S
C2118      H2124   1.111       .  S
C2125      C2126   1.405       .  A
C2125      C2130   1.406       .  A
C2125      H2132   1.084       .  S
C2126      C2127   1.420       .  A
C2127      C2128   1.408       .  A
C2127      C2134   1.505       .  S
C2128      C2129   1.408       .  A
C2128      H2133   1.075       .  S
C2129      C2130   1.401       .  A
C2130      C2131   1.479       .  S
C2131      H2135   1.110       .  S
C2131      H2136   1.110       .  S
C2131      H2137   1.092       .  S
C2134      H2138   1.105       .  S
C2134      H2139   1.109       .  S
C2134      H2140   1.111       .  S
C2141      C2142   1.414       .  A
C2141      C2146   1.406       .  A
C2141      H2148   1.085       .  S
C2142      C2143   1.425       .  A
C2143      C2144   1.406       .  A
C2143      C2150   1.500       .  S
C2144      C2145   1.397       .  A
C2144      H2149   1.084       .  S
C2145      C2146   1.412       .  A
C2146      C2147   1.506       .  S
C2147      H2151   1.110       .  S
C2147      H2152   1.107       .  S
C2147      H2153   1.107       .  S
C2150      H2154   1.107       .  S
C2150      H2155   1.104       .  S
C2150      H2156   1.111       .  S
C2157      C2158   1.411       .  A
C2157      C2162   1.397       .  A
C2157      H2164   1.084       .  S
C2158      C2159   1.436       .  A
C2159      C2160   1.405       .  A
C2159      C2166   1.501       .  S
C2160      C2161   1.394       .  A
C2160      H2165   1.085       .  S
C2161      C2162   1.413       .  A
C2162      C2163   1.511       .  S
C2163      H2167   1.110       .  S
C2163      H2168   1.110       .  S
C2163      H2169   1.106       .  S
C2166      H2170   1.103       .  S
C2166      H2171   1.102       .  S
C2166      H2172   1.112       .  S
C2173      C2174   1.410       .  A
C2173      C2178   1.397       .  A
C2173      H2180   1.079       .  S
C2174      C2175   1.407       .  A
C2175      C2176   1.390       .  A
C2175      C2182   1.506       .  S
C2176      C2177   1.398       .  A
C2176      H2181   1.065       .  S
C2177      C2178   1.408       .  A
C2178      C2179   1.498       .  S
C2179      H2183   1.111       .  S
C2179      H2184   1.111       .  S
C2179      H2185   1.110       .  S
C2182      H2186   1.110       .  S
C2182      H2187   1.109       .  S
C2182      H2188   1.111       .  S
C2189      C2190   1.406       .  A
C2189      C2194   1.421       .  A
C2189      H2196   1.084       .  S
C2190      C2191   1.406       .  A
C2191      C2192   1.380       .  A
C2191      C2198   1.515       .  S
C2192      C2193   1.420       .  A
C2192      H2197   1.073       .  S
C2193      C2194   1.433       .  A
C2194      C2195   1.501       .  S
C2195      H2199   1.111       .  S
C2195      H2200   1.108       .  S
C2195      H2201   1.105       .  S
C2198      H2202   1.111       .  S
C2198      H2203   1.103       .  S
C2198      H2204   1.112       .  S
C2205      C2206   1.421       .  A
C2205      C2210   1.412       .  A
C2205      H2212   1.071       .  S
C2206      C2207   1.450       .  A
C2207      C2208   1.386       .  A
C2207      C2214   1.505       .  S
C2208      C2209   1.378       .  A
C2208      H2213   1.085       .  S
C2209      C2210   1.409       .  A
C2210      C2211   1.505       .  S
C2211      H2215   1.111       .  S
C2211      H2216   1.107       .  S
C2211      H2217   1.110       .  S
C2214      H2218   1.099       .  S
C2214      H2219   1.100       .  S
C2214      H2220   1.113       .  S
