geometry optimzed in LAMMPS
_audit_creation_date              2020-11-30 
_audit_creation_method            'lammps2cif' 
_symmetry_space_group_name_H-M    'P1' 
_symmetry_Int_Tables_number       1 
_symmetry_cell_setting            triclinic 
loop_ 
_symmetry_equiv_pos_as_xyz 
  x,y,z 
_cell_length_a                    44.67039028 
_cell_length_b                    44.80699741393517 
_cell_length_c                    44.676896199967004 
_cell_angle_alpha                 90.05559243525308 
_cell_angle_beta                  89.85737255528085 
_cell_angle_gamma                 89.81758602870435 
loop_ 
_atom_site_label 
_atom_site_type_symbol 
_atom_site_fract_x 
_atom_site_fract_y 
_atom_site_fract_z 
_atom_site_charge 
C1          C  0.38113884  0.67382144  0.11569113     0.87900
C2          C  0.35985702  0.65703099  0.09486451    -0.52300
C3          C  0.34400342  0.63443361  0.10774306     0.10900
C4          C  0.34781083  0.63369206  0.14222054     0.21800
C5          C  0.36033445  0.68714343  0.13934688    -0.53000
C6          C  0.34239742  0.66657407  0.15371129     0.11000
C7          C  0.39854646  0.64989891  0.13318321    -0.52500
C8          C  0.38151155  0.62814144  0.14580158     0.11500
H9          H  0.35952570  0.66133678  0.07095896     0.16100
H10         H  0.33454441  0.61616634  0.15333986     0.01800
H11         H  0.35962266  0.71055280  0.14512516     0.16400
H12         H  0.42286363  0.64904146  0.13352595     0.16200
C13         C  0.75720073  0.20196475  0.11328381     0.87900
C14         C  0.78127532  0.22131055  0.09877143    -0.52300
C15         C  0.79694419  0.23846952  0.11827088     0.10900
C16         C  0.78862475  0.23286786  0.15150343     0.21800
C17         C  0.77520906  0.18288196  0.13524137    -0.53000
C18         C  0.79130486  0.19836415  0.15662718     0.11000
C19         C  0.73884692  0.22306756  0.13301783    -0.52500
C20         C  0.75478795  0.23891957  0.15350359     0.11500
H21         H  0.78372561  0.22373513  0.07469817     0.16100
H22         H  0.80217787  0.24702369  0.16637833     0.01800
H23         H  0.77827743  0.15956444  0.13090361     0.16400
H24         H  0.71482966  0.22563891  0.13023485     0.16200
C25         C  0.75380949  0.63430018  0.16627581     0.87900
C26         C  0.77451441  0.61446168  0.14709362    -0.52300
C27         C  0.79531985  0.62936598  0.13047027     0.10900
C28         C  0.79315230  0.66345678  0.13380289     0.21800
C29         C  0.77538311  0.65412836  0.18445752    -0.53000
C30         C  0.79610625  0.66995568  0.16787094     0.11000
C31         C  0.74014607  0.65542997  0.14286709    -0.52500
C32         C  0.76038108  0.67062916  0.12602258     0.11500
H33         H  0.77131112  0.59057697  0.14483125     0.16100
H34         H  0.80941451  0.67497197  0.11925768     0.01800
H35         H  0.77355418  0.65699761  0.20831039     0.16400
H36         H  0.71663331  0.65576144  0.13695575     0.16200
C37         C  0.32743906  0.23939024  0.12845660     0.87900
C38         C  0.34274123  0.21636649  0.10813363    -0.52300
C39         C  0.35921147  0.19518134  0.12248049     0.10900
C40         C  0.35902265  0.19936764  0.15681795     0.21800
C41         C  0.30989260  0.22163145  0.15134769    -0.53000
C42         C  0.32515598  0.19984774  0.16706882     0.11000
C43         C  0.35354870  0.25248948  0.14602299    -0.52500
C44         C  0.37050400  0.23209698  0.16091264     0.11500
H45         H  0.34430429  0.21941574  0.08412700     0.16100
H46         H  0.37293422  0.18194692  0.16608552     0.01800
H47         H  0.28695730  0.22778364  0.15536553     0.16400
H48         H  0.35994881  0.27582546  0.14477115     0.16200
O49         O  0.59245828  0.46258212  0.17771029    -0.73000
O50         O  0.54023133  0.39467186  0.17517215    -0.73000
O51         O  0.53241176  0.45420012  0.17424140    -0.73100
O52         O  0.60017287  0.40247838  0.17883801    -0.73100
O53         O  0.59706987  0.40218888  0.22854031    -0.73000
O54         O  0.52942505  0.45550566  0.22403428    -0.73000
O55         O  0.53652366  0.39489551  0.22484556    -0.73000
O56         O  0.59016874  0.46297148  0.22741996    -0.73100
Ni57       Ni  0.56649566  0.42849219  0.17483802     1.25400
Ni58       Ni  0.56322381  0.42894202  0.22805404     1.25400
C59         C  0.60005739  0.47419357  0.20281059     0.89200
C60         C  0.52932748  0.38371565  0.19933199     0.89100
C61         C  0.51943570  0.46306649  0.19823179     0.89200
C62         C  0.60971181  0.39340428  0.20426465     0.89300
C63         C  0.36952781  0.24192201  0.69465433     0.87900
C64         C  0.38801638  0.22094957  0.71425109    -0.52300
C65         C  0.37189407  0.20138636  0.73089200     0.10900
C66         C  0.33792537  0.20461685  0.72673621     0.21800
C67         C  0.35027898  0.22051422  0.67571590    -0.53000
C68         C  0.33294767  0.20097393  0.69229017     0.11000
C69         C  0.34668661  0.25678598  0.71573302    -0.52500
C70         C  0.33113784  0.23774241  0.73348331     0.11500
H71         H  0.41224523  0.22248711  0.71579451     0.16100
H72         H  0.32537387  0.18913165  0.74132324     0.01800
H73         H  0.34905942  0.22090618  0.65159078     0.16400
H74         H  0.34521305  0.28082272  0.71874718     0.16200
C75         C  0.75331189  0.20784276  0.74621046     0.87900
C76         C  0.73672221  0.22985636  0.72575800    -0.52300
C77         C  0.75444308  0.24767387  0.70842138     0.10900
C78         C  0.78830596  0.24290745  0.71479519     0.21800
C79         C  0.77527620  0.19124303  0.72567395    -0.53000
C80         C  0.79357510  0.20896361  0.70851299     0.11000
C81         C  0.77280687  0.22846532  0.76513304    -0.52500
C82         C  0.79126936  0.24650520  0.74924221     0.11500
H83         H  0.71256958  0.23230582  0.72606901     0.16100
H84         H  0.80323949  0.25818402  0.70242316     0.01800
H85         H  0.77586759  0.16726468  0.72375771     0.16400
H86         H  0.77084456  0.23064798  0.78924346     0.16200
C87         C  0.76211489  0.61774560  0.68921114     0.87900
C88         C  0.74258798  0.63509396  0.71115834    -0.52300
C89         C  0.75758651  0.65196831  0.73113364     0.10900
C90         C  0.79210308  0.65077110  0.72698949     0.21800
C91         C  0.78110683  0.64210258  0.67399828    -0.53000
C92         C  0.79814744  0.65898812  0.69348514     0.11000
C93         C  0.78479991  0.60055377  0.70845998    -0.52500
C94         C  0.80042116  0.61724149  0.72865045     0.11500
H95         H  0.71832794  0.63309042  0.71171309     0.16100
H96         H  0.80365227  0.66514884  0.74332394     0.01800
H97         H  0.78265352  0.64536776  0.65008400     0.16400
H98         H  0.78676687  0.57645004  0.70715044     0.16200
C99         C  0.37298998  0.65265140  0.75715410     0.87900
C100        C  0.39277980  0.63460719  0.73550658    -0.52300
C101        C  0.37776848  0.62024079  0.71338742     0.10900
C102        C  0.34356592  0.62585194  0.71422822     0.21800
C103        C  0.35406471  0.67333710  0.73790969    -0.53000
C104        C  0.33983003  0.66087789  0.71355160     0.11000
C105        C  0.35053856  0.62959938  0.76831485    -0.52500
C106        C  0.33451717  0.61591567  0.74623110     0.11500
H107        H  0.41666926  0.63144196  0.73885720     0.16100
H108        H  0.33121814  0.61304642  0.69714969     0.01800
H109        H  0.35198068  0.69618122  0.74491837     0.16400
H110        H  0.34893728  0.62222866  0.79130940     0.16200
O111        O  0.31065099  0.44730514  0.89409248    -0.73000
O112        O  0.30989917  0.39804472  0.96410654    -0.73000
O113        O  0.30773168  0.38786644  0.90468099    -0.73100
O114        O  0.31356858  0.45681572  0.95425932    -0.73100
O115        O  0.26384718  0.46038955  0.95687417    -0.73000
O116        O  0.25790836  0.39167902  0.90500031    -0.73000
O117        O  0.26010865  0.40082172  0.96517926    -0.73000
O118        O  0.26106163  0.45143802  0.89626087    -0.73100
Ni119      Ni  0.31218834  0.42249454  0.92911614     1.25400
Ni120      Ni  0.25891439  0.42626186  0.93083123     1.25400
C121        C  0.28597234  0.45733899  0.88335726     0.89200
C122        C  0.28478974  0.39136219  0.97624715     0.89100
C123        C  0.28201910  0.37833479  0.89671315     0.89200
C124        C  0.28996545  0.46899741  0.96506904     0.89300
O125        O  0.54957095  0.70884728  0.97459181    -0.73000
O126        O  0.60064471  0.69236537  0.90784105    -0.73000
O127        O  0.60906193  0.70373372  0.96618590    -0.73100
O128        O  0.54078417  0.69711886  0.91619377    -0.73100
O129        O  0.54285052  0.74545309  0.90508804    -0.73000
O130        O  0.61112418  0.75269737  0.95708818    -0.73000
O131        O  0.60361587  0.74090699  0.89801338    -0.73000
O132        O  0.55046193  0.75749894  0.96401064    -0.73100
Ni133      Ni  0.57489535  0.69886535  0.94150697     1.25400
Ni134      Ni  0.57712602  0.75095710  0.93065140     1.25400
C135        C  0.54132927  0.73569704  0.98013895     0.89200
C136        C  0.61123667  0.71386105  0.89222561     0.89100
C137        C  0.62131602  0.72915647  0.96984988     0.89200
C138        C  0.53016013  0.71991489  0.90261524     0.89300
O139        O  0.87435847  0.40918712  0.90781643    -0.73000
O140        O  0.87516920  0.47319417  0.96552625    -0.73000
O141        O  0.87339159  0.41228481  0.96893259    -0.73100
O142        O  0.87569210  0.47007431  0.90453985    -0.73100
O143        O  0.82594016  0.47059407  0.90435933    -0.73000
O144        O  0.82355898  0.41436135  0.96776047    -0.73000
O145        O  0.82538310  0.47429331  0.96433946    -0.73000
O146        O  0.82448790  0.41056421  0.90792242    -0.73100
Ni147      Ni  0.87655985  0.44113548  0.93674648     1.25400
Ni148      Ni  0.82321696  0.44253242  0.93609346     1.25400
C149        C  0.84911744  0.39915108  0.89863650     0.89200
C150        C  0.85019981  0.48453704  0.97416438     0.89100
C151        C  0.84772990  0.40353091  0.97852129     0.89200
C152        C  0.85085246  0.47988220  0.89383605     0.89300
O153        O  0.58463269  0.12320834  0.90011695    -0.73000
O154        O  0.52354538  0.11994654  0.96113552    -0.73000
O155        O  0.52360116  0.12285331  0.89998951    -0.73100
O156        O  0.58435713  0.12045376  0.96108962    -0.73100
O157        O  0.58344196  0.17019322  0.96251688    -0.73000
O158        O  0.52320255  0.17240077  0.90299740    -0.73000
O159        O  0.52366267  0.16961724  0.96326902    -0.73000
O160        O  0.58321164  0.17291355  0.90213323    -0.73100
Ni161      Ni  0.55403744  0.11972676  0.93043761     1.25400
Ni162      Ni  0.55336906  0.17292745  0.93276569     1.25400
C163        C  0.59374835  0.14875646  0.89095472     0.89200
C164        C  0.51414262  0.14443998  0.97279937     0.89100
C165        C  0.51339237  0.14826566  0.89142851     0.89200
C166        C  0.59338012  0.14524027  0.97221516     0.89300
O167        O  0.59669392  0.40351197  0.61093056    -0.73000
O168        O  0.53269440  0.46222238  0.60867378    -0.73000
O169        O  0.59383847  0.46389876  0.60645526    -0.73100
O170        O  0.53522854  0.40167093  0.61223601    -0.73100
O171        O  0.53761278  0.40420533  0.66205081    -0.73000
O172        O  0.59385878  0.46808791  0.65623723    -0.73000
O173        O  0.53405113  0.46440696  0.65856817    -0.73000
O174        O  0.59798529  0.40832804  0.66052582    -0.73100
Ni175      Ni  0.56452663  0.43263249  0.60770042     1.25400
Ni176      Ni  0.56585890  0.43628080  0.66102353     1.25400
C177        C  0.60851617  0.39709475  0.63637103     0.89200
C178        C  0.52326113  0.47311747  0.63361040     0.89100
C179        C  0.60324199  0.47636699  0.63044356     0.89200
C180        C  0.52685591  0.39268848  0.63812717     0.89300
C181        C  0.74162521  0.17428970  0.63276039     0.87900
C182        C  0.73066230  0.15248738  0.65670444    -0.52300
C183        C  0.75273628  0.13642763  0.67013115     0.10900
C184        C  0.78456500  0.14411545  0.65873542     0.21800
C185        C  0.76415480  0.19349301  0.64962540    -0.53000
C186        C  0.78795622  0.17867781  0.66248452     0.11000
C187        C  0.76039771  0.15469157  0.61153399    -0.52500
C188        C  0.78306707  0.13895601  0.62463862     0.11500
H189        H  0.70766256  0.14676825  0.66103606     0.16100
H190        H  0.80155063  0.13055232  0.67032606     0.01800
H191        H  0.75861526  0.21638367  0.65385004     0.16400
H192        H  0.75474254  0.15239390  0.58803691     0.16200
C193        C  0.75013611  0.12402526  0.21052337     0.87900
C194        C  0.73239999  0.14767499  0.22807451    -0.52300
C195        C  0.74911171  0.16931076  0.24187824     0.10900
C196        C  0.78329009  0.16403884  0.23720078     0.21800
C197        C  0.77082051  0.14100652  0.18970983    -0.53000
C198        C  0.78763275  0.16321276  0.20223465     0.11000
C199        C  0.77071592  0.11109740  0.23417094    -0.52500
C200        C  0.78861908  0.13133669  0.24787361     0.11500
H201        H  0.70872881  0.14515679  0.23251352     0.16100
H202        H  0.79793578  0.17970729  0.24922931     0.01800
H203        H  0.77323221  0.13359225  0.16722126     0.16400
H204        H  0.77067922  0.08766674  0.24042182     0.16200
C205        C  0.33334176  0.11146107  0.62513515     0.87900
C206        C  0.35681364  0.10026939  0.64725793    -0.52300
C207        C  0.37292119  0.12203899  0.66083296     0.10900
C208        C  0.36280503  0.15408910  0.65225875     0.21800
C209        C  0.31380125  0.13209532  0.64429033    -0.53000
C210        C  0.32818516  0.15530461  0.65831920     0.11000
C211        C  0.35027637  0.13249154  0.60406156    -0.52500
C212        C  0.36573907  0.15504673  0.61773636     0.11500
H213        H  0.36186202  0.07673773  0.65042356     0.16100
H214        H  0.37606604  0.17113562  0.66401752     0.01800
H215        H  0.29132227  0.12636670  0.64986027     0.16400
H216        H  0.35103908  0.12856424  0.58009876     0.16200
C217        C  0.33035460  0.11518432  0.24741798     0.87900
C218        C  0.34721564  0.13707174  0.26706368    -0.52300
C219        C  0.36304883  0.15780921  0.25197947     0.10900
C220        C  0.35966258  0.15622326  0.21779863     0.21800
C221        C  0.31063164  0.13506196  0.22747216    -0.53000
C222        C  0.32518923  0.15707085  0.21086736     0.11000
C223        C  0.35337762  0.10288633  0.22513992    -0.52500
C224        C  0.36927642  0.12387817  0.20978742     0.11500
H225        H  0.34915979  0.13438657  0.29117688     0.16100
H226        H  0.37378417  0.17392172  0.20895144     0.01800
H227        H  0.28765182  0.12958248  0.22429107     0.16400
H228        H  0.35763980  0.07912261  0.22266627     0.16200
O229        O  0.59093140  0.20494919  0.46209767    -0.73000
O230        O  0.53507141  0.20167827  0.39784573    -0.73000
O231        O  0.59527146  0.20708828  0.40239330    -0.73100
O232        O  0.53101416  0.19928554  0.45832590    -0.73100
O233        O  0.52612353  0.24859420  0.46114876    -0.73000
O234        O  0.59022961  0.25659257  0.40297455    -0.73000
O235        O  0.52907075  0.25110733  0.40021055    -0.73000
O236        O  0.58652299  0.25453736  0.46393014    -0.73100
Ni237      Ni  0.56313574  0.20158531  0.43005111     1.25400
Ni238      Ni  0.55776502  0.25456734  0.43202748     1.25400
C239        C  0.59819460  0.23015910  0.47336274     0.89200
C240        C  0.52270968  0.22575377  0.38863788     0.89100
C241        C  0.60394905  0.23293341  0.39393603     0.89200
C242        C  0.51831291  0.22234687  0.46967277     0.89300
C243        C  0.79900844  0.76080724  0.23416879     0.87900
C244        C  0.77957608  0.74090816  0.25416935    -0.52300
C245        C  0.76331868  0.71998933  0.23947480     0.10900
C246        C  0.76785129  0.72062436  0.20517907     0.21800
C247        C  0.81769089  0.73940482  0.21509382    -0.53000
C248        C  0.80247779  0.71668593  0.20096657     0.11000
C249        C  0.77657567  0.77391490  0.21198433    -0.52500
C250        C  0.76063675  0.75338478  0.19595641     0.11500
H251        H  0.77853353  0.74332368  0.27836259     0.16100
H252        H  0.75378253  0.70448400  0.19318066     0.01800
H253        H  0.84080574  0.74436974  0.21120478     0.16400
H254        H  0.77114419  0.79733260  0.21068531     0.16200
C255        C  0.38392660  0.69066941  0.23891206     0.87900
C256        C  0.36352519  0.70995098  0.25901453    -0.52300
C257        C  0.34415298  0.72793355  0.24400177     0.10900
C258        C  0.34651050  0.72502818  0.20969151     0.21800
C259        C  0.36304895  0.67377258  0.21787790    -0.53000
C260        C  0.34257581  0.69111654  0.20300470     0.11000
C261        C  0.39899090  0.71403566  0.21884266    -0.52500
C262        C  0.37977977  0.73166925  0.20290355     0.11500
H263        H  0.36621982  0.71194672  0.28306325     0.16100
H264        H  0.33110985  0.73993546  0.19742432     0.01800
H265        H  0.36488868  0.65001634  0.21400197     0.16400
H266        H  0.42295534  0.71783684  0.21883656     0.16200
C267        C  0.39353889  0.73500267  0.66908655     0.87900
C268        C  0.37332027  0.75343064  0.64855012    -0.52300
C269        C  0.35422430  0.73729682  0.63143708     0.10900
C270        C  0.35609226  0.70348658  0.63710970     0.21800
C271        C  0.37262868  0.71546931  0.68732793    -0.53000
C272        C  0.35079469  0.69968252  0.67204419     0.11000
C273        C  0.40884426  0.71330902  0.64773094    -0.52500
C274        C  0.38999188  0.69649729  0.63072351     0.11500
H275        H  0.37546065  0.77746985  0.64614936     0.16100
H276        H  0.34062330  0.69111611  0.62232265     0.01800
H277        H  0.37650790  0.71539476  0.71089667     0.16400
H278        H  0.43235192  0.71453363  0.64223975     0.16200
C279        C  0.79560683  0.75029740  0.63232248     0.87900
C280        C  0.77514796  0.76389605  0.65620159    -0.52300
C281        C  0.75951714  0.74363504  0.67287636     0.10900
C282        C  0.76738381  0.71074265  0.66470405     0.21800
C283        C  0.81619019  0.72968097  0.64940100    -0.53000
C284        C  0.80265374  0.70784519  0.66608670     0.11000
C285        C  0.77445412  0.72993925  0.61462267    -0.52500
C286        C  0.76013360  0.70877660  0.63107155     0.11500
H287        H  0.76958375  0.78750635  0.65667577     0.16100
H288        H  0.75461933  0.69464150  0.67841324     0.01800
H289        H  0.83973263  0.73380918  0.64842440     0.16400
H290        H  0.76940929  0.73318149  0.59109753     0.16200
O291        O  0.87163562  0.91428652  0.40765144    -0.73000
O292        O  0.86864746  0.97227565  0.47118442    -0.73000
O293        O  0.87109343  0.91188811  0.46891435    -0.73100
O294        O  0.86864909  0.97511370  0.41044577    -0.73100
O295        O  0.81895953  0.97207512  0.41021477    -0.73000
O296        O  0.82127131  0.91046401  0.46840183    -0.73000
O297        O  0.81884704  0.97014022  0.47060761    -0.73000
O298        O  0.82180272  0.91151251  0.40810399    -0.73100
Ni299      Ni  0.87185772  0.94338392  0.43944815     1.25400
Ni300      Ni  0.81853307  0.94096002  0.43919633     1.25400
C301        C  0.84721813  0.90312499  0.39766175     0.89200
C302        C  0.84317061  0.98054820  0.48159067     0.89100
C303        C  0.84626435  0.90161707  0.47907261     0.89200
C304        C  0.84310180  0.98449089  0.40121666     0.89300
O305        O  0.54188009  0.97317284  0.74559728    -0.73000
O306        O  0.59872047  0.90741369  0.75010736    -0.73000
O307        O  0.60255077  0.96833886  0.74927113    -0.73100
O308        O  0.53810147  0.91209510  0.74738208    -0.73100
O309        O  0.54064213  0.91112296  0.69757823    -0.73000
O310        O  0.60541141  0.96647951  0.69939015    -0.73000
O311        O  0.60072145  0.90691114  0.70024634    -0.73000
O312        O  0.54520006  0.97112534  0.69588076    -0.73100
Ni313      Ni  0.57017751  0.94034180  0.74997832     1.25400
Ni314      Ni  0.57302502  0.93891647  0.69661934     1.25400
C315        C  0.53415690  0.98279952  0.71959216     0.89200
C316        C  0.60916263  0.89657801  0.72550428     0.89100
C317        C  0.61474525  0.97627221  0.72459905     0.89200
C318        C  0.52904002  0.90199031  0.72216170     0.89300
O319        O  0.25520561  0.88650845  0.40468830    -0.73000
O320        O  0.24938163  0.94326815  0.46930924    -0.73000
O321        O  0.25276806  0.94703732  0.40840232    -0.73100
O322        O  0.25196678  0.88254649  0.46559482    -0.73100
O323        O  0.30191392  0.88364514  0.46661313    -0.73000
O324        O  0.30242986  0.94978201  0.41286405    -0.73000
O325        O  0.29923096  0.94342464  0.47291922    -0.73000
O326        O  0.30496959  0.88954406  0.40698896    -0.73100
Ni327      Ni  0.25045596  0.91481711  0.43691522     1.25400
Ni328      Ni  0.30382828  0.91672756  0.43991163     1.25400
C329        C  0.28123486  0.87850603  0.39544830     0.89200
C330        C  0.27348580  0.95225681  0.48190733     0.89100
C331        C  0.27786305  0.95905458  0.40142686     0.89200
C332        C  0.27707314  0.87221170  0.47496808     0.89300
O333        O  0.52452686  0.90576930  0.18012197    -0.73000
O334        O  0.59291325  0.95643423  0.18153864    -0.73000
O335        O  0.53327534  0.96556799  0.18297599    -0.73100
O336        O  0.58435010  0.89694958  0.17875987    -0.73100
O337        O  0.58414419  0.89920472  0.12904224    -0.73000
O338        O  0.53215831  0.96801325  0.13330506    -0.73000
O339        O  0.59228867  0.95926577  0.13181381    -0.73000
O340        O  0.52368021  0.90758173  0.13039479    -0.73100
Ni341      Ni  0.55872496  0.93107236  0.18253348     1.25400
Ni342      Ni  0.55797255  0.93357512  0.12931015     1.25400
C343        C  0.51284619  0.89797004  0.15518570     0.89200
C344        C  0.60396465  0.96630935  0.15703299     0.89100
C345        C  0.52464720  0.97860867  0.15897823     0.89200
C346        C  0.59307533  0.88683429  0.15335778     0.89300
O347        O  0.61227579  0.62643411  0.40429052    -0.73000
O348        O  0.54527761  0.63196970  0.45883027    -0.73000
O349        O  0.55171715  0.62636644  0.39883444    -0.73100
O350        O  0.60586840  0.63159000  0.46519239    -0.73100
O351        O  0.60517450  0.68114006  0.46208359    -0.73000
O352        O  0.55315165  0.67579022  0.39385663    -0.73000
O353        O  0.54513735  0.68130700  0.45364566    -0.73000
O354        O  0.61334644  0.67612227  0.40194934    -0.73100
Ni355      Ni  0.57887568  0.62730997  0.43196598     1.25400
Ni356      Ni  0.57928960  0.68030983  0.42771257     1.25400
C357        C  0.62369222  0.65062211  0.39402894     0.89200
C358        C  0.53378427  0.65760608  0.46485608     0.89100
C359        C  0.54333608  0.65022871  0.38547320     0.89200
C360        C  0.61393510  0.65717993  0.47515578     0.89300
C361        C  0.83536384  0.26228044  0.63008105     0.87900
C362        C  0.85574673  0.24167985  0.61157290    -0.52300
C363        C  0.87037427  0.22060026  0.62771952     0.10900
C364        C  0.86400374  0.22224407  0.66159352     0.21800
C365        C  0.81504931  0.24160859  0.64793685    -0.53000
C366        C  0.82908067  0.21951522  0.66417586     0.11000
C367        C  0.85678520  0.27541570  0.65320976    -0.52500
C368        C  0.87167307  0.25488639  0.67023209     0.11500
H369        H  0.85938558  0.24400001  0.58765462     0.16100
H370        H  0.87716368  0.20597555  0.67461363     0.01800
H371        H  0.79154468  0.24623001  0.64817663     0.16400
H372        H  0.86235635  0.29892521  0.65397713     0.16200
C373        C  0.82306025  0.24863284  0.23870936     0.87900
C374        C  0.84419619  0.26440108  0.21703038    -0.52300
C375        C  0.86296521  0.24608863  0.20165376     0.10900
C376        C  0.85744640  0.21248426  0.20767667     0.21800
C377        C  0.80573455  0.22678046  0.21871687    -0.53000
C378        C  0.82337035  0.20730210  0.20251482     0.11000
C379        C  0.84332698  0.22819708  0.25759286    -0.52500
C380        C  0.86106710  0.20871866  0.24178331     0.11500
H381        H  0.84613210  0.28856051  0.21599026     0.16100
H382        H  0.87214102  0.19817220  0.19390685     0.01800
H383        H  0.78170020  0.22564157  0.21703223     0.16400
H384        H  0.84391862  0.22994595  0.28180175     0.16200
C385        C  0.88133787  0.66665248  0.23984669     0.87900
C386        C  0.89513168  0.64418994  0.21797782    -0.52300
C387        C  0.87530810  0.62984256  0.19994907     0.10900
C388        C  0.84225266  0.63843201  0.20664576     0.21800
C389        C  0.86231895  0.68694645  0.22054881    -0.53000
C390        C  0.84085815  0.67343911  0.20314570     0.11000
C391        C  0.85904079  0.64764443  0.25766958    -0.52500
C392        C  0.83886417  0.63225133  0.24070285     0.11500
H393        H  0.91869848  0.63824012  0.21812850     0.16100
H394        H  0.82639606  0.62552344  0.19276151     0.01800
H395        H  0.86814934  0.71004931  0.21980049     0.16400
H396        H  0.86153836  0.64324045  0.28142079     0.16200
C397        C  0.88834270  0.66613965  0.62564102     0.87900
C398        C  0.86721220  0.65052753  0.60355306    -0.52300
C399        C  0.84460376  0.63400203  0.61600314     0.10900
C400        C  0.84605108  0.63421706  0.65060466     0.21800
C401        C  0.86792796  0.68354775  0.64707023    -0.53000
C402        C  0.84430224  0.66789550  0.65957907     0.11000
C403        C  0.89999366  0.64036176  0.64455439    -0.52500
C404        C  0.87829522  0.62391718  0.65785607     0.11500
H405        H  0.87186653  0.65081960  0.57974308     0.16100
H406        H  0.82996730  0.61969867  0.66197542     0.01800
H407        H  0.87454109  0.70556036  0.65390796     0.16400
H408        H  0.92307771  0.63322610  0.64573699     0.16200
O409        O  0.11362458  0.72935709  0.40129146    -0.73000
O410        O  0.04852568  0.73633329  0.45744111    -0.73000
O411        O  0.10871286  0.73068164  0.46205413    -0.73100
O412        O  0.05305740  0.73485151  0.39636363    -0.73100
O413        O  0.04970518  0.68534980  0.39679089    -0.73000
O414        O  0.10304103  0.68130175  0.46325139    -0.73000
O415        O  0.04343076  0.68688280  0.45698482    -0.73000
O416        O  0.10964763  0.67994388  0.40289554    -0.73100
Ni417      Ni  0.08112958  0.73461905  0.42918987     1.25400
Ni418      Ni  0.07631720  0.68167441  0.42994256     1.25400
C419        C  0.12258198  0.70342817  0.39293027     0.89200
C420        C  0.03553698  0.71261063  0.46680220     0.89100
C421        C  0.11447628  0.70522361  0.47386867     0.89200
C422        C  0.04222123  0.71059200  0.38564471     0.89300
O423        O  0.03514185  0.45875886  0.67944895    -0.73000
O424        O  0.10503503  0.40979540  0.68278839    -0.73000
O425        O  0.04537811  0.39955657  0.68345578    -0.73100
O426        O  0.09473432  0.46910030  0.67894324    -0.73100
O427        O  0.09475151  0.47264433  0.72857413    -0.73000
O428        O  0.04487628  0.40278828  0.73311074    -0.73000
O429        O  0.10500371  0.41280811  0.73248756    -0.73000
O430        O  0.03450381  0.46239689  0.72913946    -0.73100
Ni431      Ni  0.07008175  0.43420206  0.67946926     1.25400
Ni432      Ni  0.06978918  0.43780018  0.73264761     1.25400
C433        C  0.02316203  0.46867174  0.70354842     0.89200
C434        C  0.11665706  0.40305422  0.70806332     0.89100
C435        C  0.03669614  0.38968640  0.70894007     0.89200
C436        C  0.10321216  0.48233579  0.70289213     0.89300
O437        O  0.02821696  0.45996766  0.12481152    -0.73000
O438        O  0.09540256  0.40462722  0.12792668    -0.73000
O439        O  0.03433712  0.39972776  0.13040720    -0.73100
O440        O  0.08935906  0.46485487  0.12146451    -0.73100
O441        O  0.09068246  0.47006231  0.17102487    -0.73000
O442        O  0.03617807  0.40482396  0.17986725    -0.73000
O443        O  0.09644683  0.41029946  0.17737842    -0.73000
O444        O  0.03050134  0.46441042  0.17430878    -0.73100
Ni445      Ni  0.06177744  0.43212623  0.12430880     1.25400
Ni446      Ni  0.06355244  0.43758900  0.17728739     1.25400
C447        C  0.01797336  0.47094604  0.14944866     0.89200
C448        C  0.10691749  0.39829904  0.15354072     0.89100
C449        C  0.02590296  0.39162479  0.15660373     0.89200
C450        C  0.09918830  0.47815592  0.14483930     0.89300
O451        O  0.07957337  0.12519639  0.40443800    -0.73000
O452        O  0.01608584  0.12241587  0.46266182    -0.73000
O453        O  0.01903263  0.12307437  0.40120508    -0.73100
O454        O  0.07672538  0.12461758  0.46534456    -0.73100
O455        O  0.07330959  0.17415737  0.46630037    -0.73000
O456        O  0.01836928  0.17279194  0.40100819    -0.73000
O457        O  0.01308584  0.17212018  0.46148364    -0.73000
O458        O  0.07809725  0.17483778  0.40612610    -0.73100
Ni459      Ni  0.04783613  0.12197377  0.43341425     1.25400
Ni460      Ni  0.04558747  0.17516185  0.43379927     1.25400
C461        C  0.08930615  0.15064138  0.39570333     0.89200
C462        C  0.00438658  0.14696157  0.47179596     0.89100
C463        C  0.01010913  0.14784593  0.38980509     0.89200
C464        C  0.08450098  0.14984783  0.47645726     0.89300
O465        O  0.80359965  0.47297115  0.45053902    -0.73000
O466        O  0.79271300  0.40422993  0.40084462    -0.73000
O467        O  0.79772504  0.46319874  0.39052443    -0.73100
O468        O  0.79918388  0.41427526  0.46021193    -0.73100
O469        O  0.74946117  0.41720391  0.46381521    -0.73000
O470        O  0.74852570  0.47015818  0.39579388    -0.73000
O471        O  0.74315130  0.41038804  0.40329768    -0.73000
O472        O  0.75425808  0.47674444  0.45638367    -0.73100
Ni473      Ni  0.80001852  0.43853279  0.42529786     1.25400
Ni474      Ni  0.74701810  0.44380038  0.42994048     1.25400
C475        C  0.78078192  0.48534066  0.46292007     0.89200
C476        C  0.76618870  0.39643067  0.39341030     0.89100
C477        C  0.77309653  0.47476932  0.38160175     0.89200
C478        C  0.77478133  0.40792700  0.47374392     0.89300
C479        C  0.24530512  0.20303292  0.62270790     0.87900
C480        C  0.26606086  0.22337855  0.60439122    -0.52300
C481        C  0.28648926  0.23864478  0.62094104     0.10900
C482        C  0.28489349  0.23166758  0.65475142     0.21800
C483        C  0.26583436  0.18278031  0.64092046    -0.53000
C484        C  0.28784956  0.19673081  0.65728961     0.11000
C485        C  0.23184665  0.22462836  0.64572108    -0.52500
C486        C  0.25212649  0.23932595  0.66308330     0.11500
H487        H  0.26298596  0.22780411  0.58070264     0.16100
H488        H  0.30069117  0.24488706  0.66819174     0.01800
H489        H  0.26101565  0.15936385  0.64173729     0.16400
H490        H  0.20831757  0.23059936  0.64601774     0.16200
C491        C  0.26476208  0.61265536  0.19194654     0.87900
C492        C  0.24766744  0.63158036  0.21505572    -0.52300
C493        C  0.26530616  0.64841085  0.23328501     0.10900
C494        C  0.29906664  0.64414698  0.22745738     0.21800
C495        C  0.28447953  0.63503321  0.17568495    -0.53000
C496        C  0.30311115  0.65142317  0.19336374     0.11000
C497        C  0.28618844  0.59401280  0.21144716    -0.52500
C498        C  0.30358682  0.61007867  0.23070136     0.11500
H499        H  0.22346937  0.63101156  0.21747750     0.16100
H500        H  0.31287665  0.65743472  0.24308940     0.01800
H501        H  0.28289253  0.63897626  0.15202590     0.16400
H502        H  0.28432369  0.57010385  0.21417661     0.16200
C503        C  0.31792154  0.61870011  0.62675146     0.87900
C504        C  0.29946905  0.63780790  0.60519657    -0.52300
C505        C  0.27769140  0.65475615  0.61816557     0.10900
C506        C  0.27814854  0.65277544  0.65275059     0.21800
C507        C  0.33085952  0.64095781  0.64872385    -0.53000
C508        C  0.31112794  0.65920379  0.66369554     0.11000
C509        C  0.29392003  0.60158159  0.64458250    -0.52500
C510        C  0.27305938  0.61916001  0.65855701     0.11500
H511        H  0.30182960  0.63606836  0.58111426     0.16100
H512        H  0.26017115  0.66659333  0.66137872     0.01800
H513        H  0.35436258  0.64214267  0.65266432     0.16400
H514        H  0.29126135  0.57760481  0.64353401     0.16200
C515        C  0.24370491  0.20467420  0.24455667     0.87900
C516        C  0.23249724  0.22907308  0.22355683    -0.52300
C517        C  0.25443610  0.24363502  0.20826414     0.10900
C518        C  0.28668558  0.23217974  0.21587919     0.21800
C519        C  0.26249179  0.18442294  0.22479073    -0.53000
C520        C  0.28590702  0.19753124  0.20986013     0.11000
C521        C  0.26575606  0.22143954  0.26470676    -0.52500
C522        C  0.28873093  0.23567617  0.25040213     0.11500
H523        H  0.20940940  0.23647163  0.22243873     0.16100
H524        H  0.30467589  0.24404491  0.20392194     0.01800
H525        H  0.25533599  0.16181293  0.22111794     0.16400
H526        H  0.26141944  0.22405738  0.28845136     0.16200
O527        O  0.33516068  0.46300125  0.40630909    -0.73000
O528        O  0.33127036  0.40502446  0.46857415    -0.73000
O529        O  0.33817378  0.46499595  0.46679139    -0.73100
O530        O  0.32920582  0.40335724  0.40764020    -0.73100
O531        O  0.37875325  0.39789037  0.40579306    -0.73000
O532        O  0.38772758  0.45936312  0.46508957    -0.73000
O533        O  0.38091190  0.39934015  0.46707882    -0.73000
O534        O  0.38488514  0.45824929  0.40417300    -0.73100
Ni535      Ni  0.33173748  0.43424628  0.43746937     1.25400
Ni536      Ni  0.38487371  0.42846430  0.43546901     1.25400
C537        C  0.36038964  0.46999285  0.39482110     0.89200
C538        C  0.35527041  0.39287863  0.47830471     0.89100
C539        C  0.36444192  0.47241704  0.47564464     0.89200
C540        C  0.35258779  0.39092484  0.39637649     0.89300
C541        C  0.30698875  0.17844281  0.18892917    -0.01000
C542        C  0.80919949  0.18279252  0.18267277    -0.01000
C543        C  0.32147638  0.67713399  0.17948939    -0.01000
C544        C  0.31060116  0.17889414  0.67757671    -0.01000
C545        C  0.81185918  0.19495967  0.68232428    -0.01000
C546        C  0.81920046  0.69180701  0.18235648    -0.01000
C547        C  0.32462894  0.68080941  0.68830269    -0.01000
C548        C  0.24459595  0.15113326  0.13227264     0.87900
C549        C  0.23241887  0.12962685  0.15575307    -0.52300
C550        C  0.25366660  0.11535434  0.17235612     0.10900
C551        C  0.28616548  0.12447015  0.16385002     0.21800
C552        C  0.26344270  0.17228913  0.15139402    -0.53000
C553        C  0.28636473  0.15933888  0.16766465     0.11000
C554        C  0.26687922  0.13307398  0.11380302    -0.52500
C555        C  0.28810475  0.11862736  0.12992276     0.11500
H556        H  0.20863915  0.12580920  0.15896693     0.16100
H557        H  0.30367279  0.11193516  0.17603853     0.01800
H558        H  0.25569376  0.19456687  0.15551615     0.16400
H559        H  0.26448818  0.12986909  0.08979572     0.16200
C560        C  0.25333139  0.16227262  0.74169592     0.87900
C561        C  0.27546939  0.14372246  0.76024749    -0.52300
C562        C  0.29433689  0.12611588  0.74405561     0.10900
C563        C  0.28990847  0.12914302  0.70984637     0.21800
C564        C  0.27232163  0.17992799  0.71956911    -0.53000
C565        C  0.29177940  0.16334950  0.70244792     0.11000
C566        C  0.23782180  0.13843149  0.72251429    -0.52500
C567        C  0.25649762  0.12159520  0.70502648     0.11500
H568        H  0.27387860  0.14167341  0.78442673     0.16100
H569        H  0.30563856  0.11448146  0.69758176     0.01800
H570        H  0.26991538  0.20377817  0.71681734     0.16400
H571        H  0.21416712  0.13342520  0.72406249     0.16200
C572        C  0.87223061  0.12216858  0.17170257     0.87900
C573        C  0.89039974  0.14283885  0.15111753    -0.52300
C574        C  0.87389177  0.16043785  0.13252066     0.10900
C575        C  0.84008544  0.15577787  0.13620432     0.21800
C576        C  0.85082601  0.14355910  0.18855974    -0.53000
C577        C  0.83359221  0.16147392  0.17008386     0.11000
C578        C  0.85105833  0.10491807  0.15106610    -0.52500
C579        C  0.83512031  0.12195050  0.13175822     0.11500
H580        H  0.91469901  0.14224526  0.15035584     0.16100
H581        H  0.82749500  0.16973147  0.12034912     0.01800
H582        H  0.84833768  0.14436298  0.21262311     0.16400
H583        H  0.85075632  0.08068104  0.14984033     0.16200
C584        C  0.25878572  0.73815376  0.16980908     0.87900
C585        C  0.24132032  0.71795269  0.14854249    -0.52300
C586        C  0.25818853  0.70233658  0.12857607     0.10900
C587        C  0.29216197  0.70637601  0.13340454     0.21800
C588        C  0.27971628  0.71615892  0.18617146    -0.53000
C589        C  0.29820334  0.69990064  0.16737305     0.11000
C590        C  0.27996325  0.75638197  0.14981411    -0.52500
C591        C  0.29700207  0.74018973  0.13031304     0.11500
H592        H  0.21700801  0.71834123  0.14735487     0.16100
H593        H  0.30547563  0.69297676  0.11734199     0.01800
H594        H  0.28077804  0.71350286  0.21018956     0.16400
H595        H  0.27957769  0.78061691  0.14965602     0.16200
C596        C  0.84215263  0.74375857  0.11550257     0.87900
C597        C  0.86259975  0.72013950  0.10109234    -0.52300
C598        C  0.87846714  0.70312746  0.12078239     0.10900
C599        C  0.87194233  0.71087182  0.15398410     0.21800
C600        C  0.82238879  0.72675106  0.13762173    -0.53000
C601        C  0.83712174  0.70873154  0.15766144     0.11000
C602        C  0.86385893  0.76126552  0.13544781    -0.52500
C603        C  0.87849449  0.74474302  0.15646237     0.11500
H604        H  0.86689677  0.71916577  0.07716790     0.16100
H605        H  0.88548791  0.69715214  0.16943548     0.01800
H606        H  0.79844493  0.72934781  0.13814158     0.16400
H607        H  0.86841835  0.78485891  0.13301720     0.16200
O608        O  0.09882140  0.95692917  0.25722300    -0.73000
O609        O  0.03289749  0.90091291  0.25705124    -0.73000
O610        O  0.09382467  0.89688776  0.25733395    -0.73100
O611        O  0.03720963  0.96172179  0.25767781    -0.73100
O612        O  0.03917919  0.96333942  0.20782285    -0.73000
O613        O  0.09182083  0.89571558  0.20743737    -0.73000
O614        O  0.03185211  0.90345896  0.20724376    -0.73000
O615        O  0.09937758  0.95523512  0.20747301    -0.73100
Ni616      Ni  0.06559821  0.92921343  0.25918776     1.25400
Ni617      Ni  0.06551305  0.92951401  0.20579952     1.25400
C618        C  0.11087051  0.96416905  0.23209041     0.89200
C619        C  0.02160833  0.89298292  0.23183481     0.89100
C620        C  0.10197553  0.88562855  0.23225725     0.89200
C621        C  0.02894168  0.97323571  0.23275821     0.89300
C622        C  0.29121505  0.74375743  0.74154594     0.87900
C623        C  0.27586314  0.72026891  0.76104569    -0.52300
C624        C  0.26325056  0.69693613  0.74623305     0.10900
C625        C  0.26685138  0.70019187  0.71183355     0.21800
C626        C  0.31253489  0.72717003  0.72094230    -0.53000
C627        C  0.30167800  0.70303131  0.70507709     0.11000
C628        C  0.26628849  0.75407469  0.72111332    -0.52500
C629        C  0.25305164  0.73187915  0.70520188     0.11500
H630        H  0.27155990  0.72451469  0.78453079     0.16100
H631        H  0.25530403  0.68178178  0.70142493     0.01800
H632        H  0.33489352  0.73532145  0.72029493     0.16400
H633        H  0.25771016  0.77677516  0.72091832     0.16200
O634        O  0.37537259  0.95945670  0.96994539    -0.73000
O635        O  0.36863131  0.90510885  0.90396926    -0.73000
O636        O  0.37230742  0.96509880  0.90889221    -0.73100
O637        O  0.37106345  0.89885451  0.96441054    -0.73100
O638        O  0.32139894  0.90220052  0.96631008    -0.73000
O639        O  0.32267173  0.96828229  0.91262664    -0.73000
O640        O  0.31895571  0.90881252  0.90638749    -0.73000
O641        O  0.32553535  0.96209908  0.97281632    -0.73100
Ni642      Ni  0.37369812  0.93206226  0.93682058     1.25400
Ni643      Ni  0.32046039  0.93548250  0.93971845     1.25400
C644        C  0.35148398  0.96969969  0.98214019     0.89200
C645        C  0.34266091  0.89836153  0.89401245     0.89100
C646        C  0.34735505  0.97712799  0.90110744     0.89200
C647        C  0.34573030  0.88918882  0.97399208     0.89300
C648        C  0.87481304  0.13312297  0.68983926     0.87900
C649        C  0.85576229  0.11533083  0.71237231    -0.52300
C650        C  0.83884494  0.13208097  0.73154997     0.10900
C651        C  0.84307582  0.16594231  0.72724235     0.21800
C652        C  0.85242300  0.15434277  0.67455015    -0.53000
C653        C  0.83531336  0.17178974  0.69382878     0.11000
C654        C  0.89327360  0.15343091  0.71025066    -0.52500
C655        C  0.87712873  0.17036654  0.72972270     0.11500
H656        H  0.85754884  0.09139319  0.71528817     0.16100
H657        H  0.83058919  0.17962377  0.74375656     0.01800
H658        H  0.85010476  0.15539485  0.65049087     0.16400
H659        H  0.91749447  0.15217640  0.71187404     0.16200
O660        O  0.08504150  0.18477726  0.96009211    -0.73000
O661        O  0.02559311  0.19354229  0.89956121    -0.73000
O662        O  0.08614190  0.18930383  0.90012608    -0.73100
O663        O  0.02455911  0.18851530  0.95914501    -0.73100
O664        O  0.02615635  0.23796623  0.96293390    -0.73000
O665        O  0.08984163  0.23872517  0.90427936    -0.73000
O666        O  0.02906320  0.24315419  0.90257426    -0.73000
O667        O  0.08710012  0.23425936  0.96514439    -0.73100
Ni668      Ni  0.05527165  0.18734950  0.92956261     1.25400
Ni669      Ni  0.05822755  0.24036500  0.93388084     1.25400
C670        C  0.09583173  0.20805688  0.97266391     0.89200
C671        C  0.01711117  0.21967243  0.89160781     0.89100
C672        C  0.09847484  0.21391144  0.89262286     0.89200
C673        C  0.01455578  0.21283958  0.97041383     0.89300
C674        C  0.87980093  0.69120322  0.74623774     0.87900
C675        C  0.85985276  0.71204909  0.76478156    -0.52300
C676        C  0.84423664  0.73278907  0.74885444     0.10900
C677        C  0.84721456  0.72826755  0.71472347     0.21800
C678        C  0.85797589  0.67562239  0.72479335    -0.53000
C679        C  0.84035035  0.69469586  0.70811571     0.11000
C680        C  0.89776318  0.71166296  0.72525013    -0.52500
C681        C  0.88105021  0.73142320  0.70907378     0.11500
H682        H  0.86032403  0.71196262  0.78908856     0.16100
H683        H  0.83389371  0.74430159  0.70167845     0.01800
H684        H  0.85742122  0.65183232  0.72094455     0.16400
H685        H  0.92206106  0.71165026  0.72478720     0.16200
O686        O  0.04039229  0.60403111  0.90845804    -0.73000
O687        O  0.10571838  0.61471780  0.96341832    -0.73000
O688        O  0.04491783  0.61250135  0.96896306    -0.73100
O689        O  0.10130362  0.60692933  0.90287937    -0.73100
O690        O  0.09686663  0.65599687  0.89616705    -0.73000
O691        O  0.04372714  0.66179356  0.96275712    -0.73000
O692        O  0.10390387  0.66383989  0.95561307    -0.73000
O693        O  0.03695719  0.65349504  0.90368035    -0.73100
Ni694      Ni  0.07321637  0.60768629  0.93616325     1.25400
Ni695      Ni  0.07031659  0.66042666  0.92934906     1.25400
C696        C  0.02758317  0.62721904  0.89757585     0.89200
C697        C  0.11573339  0.64105199  0.96826647     0.89100
C698        C  0.03488834  0.63838528  0.97652777     0.89200
C699        C  0.10800054  0.63080970  0.88840466     0.89300
O700        O  0.81610138  0.90320086  0.95056919    -0.73000
O701        O  0.81945600  0.97316591  0.90143152    -0.73000
O702        O  0.81736306  0.96290511  0.96103750    -0.73100
O703        O  0.81849139  0.91386348  0.89108484    -0.73100
O704        O  0.76857168  0.91349510  0.89056722    -0.73000
O705        O  0.76764484  0.96606555  0.95885422    -0.73000
O706        O  0.76977872  0.97385855  0.89856966    -0.73000
O707        O  0.76627294  0.90560498  0.95082887    -0.73100
Ni708      Ni  0.81956273  0.93823890  0.92614349     1.25400
Ni709      Ni  0.76623694  0.93980696  0.92467233     1.25400
C710        C  0.79069350  0.89280598  0.95885735     0.89200
C711        C  0.79528084  0.98488363  0.89137830     0.89100
C712        C  0.79254457  0.97320762  0.97114777     0.89200
C713        C  0.79381574  0.90524984  0.87950950     0.89300
O714        O  0.09116152  0.89868145  0.68895714    -0.73000
O715        O  0.03926642  0.96729891  0.68366934    -0.73000
O716        O  0.03135635  0.90731733  0.68748195    -0.73100
O717        O  0.09965096  0.95850713  0.68524109    -0.73100
O718        O  0.10065441  0.95557781  0.63555083    -0.73000
O719        O  0.03227546  0.90369642  0.63785535    -0.73000
O720        O  0.03991364  0.96388231  0.63403006    -0.73000
O721        O  0.09231477  0.89540507  0.63933234    -0.73100
Ni722      Ni  0.06533050  0.93316059  0.68804857     1.25400
Ni723      Ni  0.06633480  0.92962828  0.63491231     1.25400
C724        C  0.10004162  0.88534410  0.66508687     0.89200
C725        C  0.03055988  0.97676581  0.65800078     0.89100
C726        C  0.02085829  0.89644309  0.66316947     0.89200
C727        C  0.11177947  0.96527434  0.66014400     0.89300
C728        C  0.82103866  0.68253561  0.68197227    -0.01000
C729        C  0.79913353  0.80326273  0.76769784     0.14100
C730        C  0.81504186  0.81433344  0.79236644     0.01100
C731        C  0.84123409  0.79979272  0.80146869     0.16100
C732        C  0.85088093  0.77389501  0.78706670     0.25500
C733        C  0.83416726  0.76138873  0.76330314    -0.40900
C734        C  0.80901950  0.77732339  0.75290307     0.32500
C735        C  0.80460673  0.84044943  0.80978403     0.01200
F736        F  0.85741394  0.81059853  0.82477341    -0.13200
F737        F  0.79441865  0.76826383  0.72807924    -0.13700
C738        C  0.78215046  0.83680244  0.83151811     0.16100
C739        C  0.77729603  0.85883578  0.85328529     0.25500
C740        C  0.79498086  0.88473257  0.85364870    -0.40800
C741        C  0.81630948  0.88908110  0.83084908     0.32400
C742        C  0.82100758  0.86713386  0.80902010     0.14200
F743        F  0.76671238  0.81080303  0.83316353    -0.13200
F744        F  0.83338456  0.91410637  0.83040589    -0.13700
F745        F  0.75728910  0.85361159  0.87558338    -0.16000
F746        F  0.84282320  0.87108099  0.78818676    -0.14500
F747        F  0.77429771  0.81770032  0.75781255    -0.14500
F748        F  0.87737979  0.76192478  0.79584223    -0.15900
C749        C  0.97996946  0.61363144  0.82920102     0.14100
C750        C  0.95585313  0.63296203  0.83540581     0.01100
C751        C  0.95285966  0.64508246  0.86426993     0.16100
C752        C  0.97552299  0.64124568  0.88530466     0.25500
C753        C  0.00115134  0.62450670  0.87816046    -0.40900
C754        C  0.00253415  0.60926268  0.85064581     0.32500
C755        C  0.93762740  0.64582776  0.81094319     0.01200
F756        F  0.92915916  0.66290098  0.87112442    -0.13200
F757        F  0.02695499  0.59259345  0.84347948    -0.13700
C758        C  0.91720602  0.62887087  0.79440493     0.16100
C759        C  0.89898541  0.64253945  0.77274878     0.25500
C760        C  0.90068390  0.67361609  0.76728892    -0.40800
C761        C  0.92180775  0.69013186  0.78408608     0.32400
C762        C  0.94020426  0.67637680  0.80503718     0.14200
F763        F  0.91420027  0.59926122  0.79986471    -0.13200
F764        F  0.92434763  0.72014592  0.78077484    -0.13700
F765        F  0.87948990  0.62508976  0.75805518    -0.16000
F766        F  0.96046488  0.69319385  0.82010161    -0.14500
F767        F  0.98303987  0.60127643  0.80159985    -0.14500
F768        F  0.97336405  0.65547013  0.91208780    -0.15900
C769        C  0.90207164  0.80946604  0.68444044     0.14100
C770        C  0.93056963  0.80438070  0.67212314     0.01100
C771        C  0.94000728  0.77493160  0.66679116     0.16100
C772        C  0.92241573  0.75096915  0.67628889     0.25500
C773        C  0.89531112  0.75604743  0.69175941    -0.40900
C774        C  0.88456622  0.78556865  0.69420992     0.32500
C775        C  0.95189142  0.82940775  0.66883974     0.01200
F776        F  0.96732936  0.76934549  0.65459162    -0.13200
F777        F  0.85844906  0.79183025  0.70836642    -0.13700
C778        C  0.96027000  0.84579940  0.69426268     0.16100
C779        C  0.98185446  0.86816533  0.69222465     0.25500
C780        C  0.99592899  0.87449613  0.66463866    -0.40800
C781        C  0.98704893  0.85828092  0.63902210     0.32400
C782        C  0.96524292  0.83595842  0.64116914     0.14200
F783        F  0.94836535  0.83928960  0.72148784    -0.13200
F784        F  0.99997352  0.86332795  0.61197562    -0.13700
F785        F  0.98928874  0.88312843  0.71757418    -0.16000
F786        F  0.95734480  0.82051548  0.61626350    -0.14500
F787        F  0.89201952  0.83778376  0.68876731    -0.14500
F788        F  0.93271933  0.72279291  0.67178402    -0.15900
C789        C  0.94315504  0.20451451  0.85573551     0.14100
C790        C  0.94729554  0.21668334  0.82704868     0.01100
C791        C  0.97271154  0.23432034  0.82132213     0.16100
C792        C  0.99499243  0.23724110  0.84321560     0.25500
C793        C  0.99209049  0.22214896  0.87060390    -0.40900
C794        C  0.96556408  0.20685293  0.87716178     0.32500
C795        C  0.92815082  0.20595079  0.80234631     0.01200
F796        F  0.97711062  0.24657020  0.79388503    -0.13200
F797        F  0.96192859  0.19309181  0.90400538    -0.13700
C798        C  0.91176796  0.22549181  0.78389845     0.16100
C799        C  0.89384510  0.21400647  0.76081758     0.25500
C800        C  0.89230226  0.18310461  0.75606373    -0.40800
C801        C  0.90844711  0.16375799  0.77474559     0.32400
C802        C  0.92646822  0.17503788  0.79730671     0.14200
F803        F  0.91313606  0.25544290  0.78823265    -0.13200
F804        F  0.90718739  0.13373061  0.77068697    -0.13700
F805        F  0.87826231  0.23288206  0.74298377    -0.16000
F806        F  0.94308555  0.15567069  0.81379055    -0.14500
F807        F  0.91828432  0.18836116  0.86218443    -0.14500
F808        F  0.02033999  0.25263919  0.83681612    -0.15900
C809        C  0.81811752  0.10818203  0.81013692     0.14100
C810        C  0.80404629  0.08074285  0.80449976     0.01100
C811        C  0.79694345  0.07299904  0.77492275     0.16100
C812        C  0.80606099  0.09118860  0.75117713     0.25500
C813        C  0.82232608  0.11756755  0.75659542    -0.40900
C814        C  0.82696733  0.12661720  0.78639328     0.32500
C815        C  0.80123705  0.05817671  0.82858013     0.01200
F816        F  0.78347968  0.04654680  0.76887802    -0.13200
F817        F  0.84249726  0.15180376  0.79264030    -0.13700
C818        C  0.77316684  0.04868211  0.83896594     0.16100
C819        C  0.77107011  0.02544840  0.85995486     0.25500
C820        C  0.79713054  0.01103629  0.87070346    -0.40800
C821        C  0.82525091  0.02130274  0.86054546     0.32400
C822        C  0.82718280  0.04452175  0.83977517     0.14200
F823        F  0.74779409  0.06180963  0.82861229    -0.13200
F824        F  0.85111438  0.00844552  0.86999175    -0.13700
F825        F  0.74348376  0.01694298  0.86940140    -0.16000
F826        F  0.85456059  0.05296433  0.82962280    -0.14500
F827        F  0.82500148  0.11616618  0.83861385    -0.14500
F828        F  0.80074567  0.08199526  0.72271065    -0.15900
C829        C  0.91085410  0.06221529  0.65721995     0.14100
C830        C  0.94062846  0.07154712  0.65411528     0.01100
C831        C  0.94657188  0.10230609  0.65386941     0.16100
C832        C  0.92372340  0.12304981  0.66033095     0.25500
C833        C  0.89486715  0.11331471  0.66929912    -0.40900
C834        C  0.88816220  0.08282352  0.66423028     0.32500
C835        C  0.96537956  0.04907921  0.65386732     0.01200
F836        F  0.97479595  0.11218992  0.64863730    -0.13200
F837        F  0.85985799  0.07245200  0.66713943    -0.13700
C838        C  0.97094539  0.03110631  0.62868445     0.16100
C839        C  0.99261297  0.00824774  0.62967182     0.25500
C840        C  0.00895700  0.00248947  0.65614424    -0.40800
C841        C  0.00348045  0.02097713  0.68123045     0.32400
C842        C  0.98207833  0.04398887  0.68000669     0.14200
F843        F  0.95502978  0.03543288  0.60320579    -0.13200
F844        F  0.01864338  0.01674752  0.70719183    -0.13700
F845        F  0.99678836  0.99114507  0.60491319    -0.16000
F846        F  0.97689656  0.06076453  0.70482858    -0.14500
F847        F  0.90402482  0.03276510  0.65544255    -0.14500
F848        F  0.93041344  0.15258024  0.65955132    -0.15900
C849        C  0.32835352  0.78364069  0.80744043     0.14100
C850        C  0.32691891  0.81356282  0.79846050     0.01100
C851        C  0.31855008  0.82038299  0.76898579     0.16100
C852        C  0.30897405  0.79778804  0.74965899     0.25500
C853        C  0.30674733  0.76804282  0.75990294    -0.40900
C854        C  0.31959035  0.76104679  0.78797573     0.32500
C855        C  0.33254295  0.83744049  0.82050064     0.01200
F856        F  0.31926252  0.84901395  0.75908936    -0.13200
F857        F  0.32321871  0.73234227  0.79706044    -0.13700
C858        C  0.35942133  0.83810033  0.83671701     0.16100
C859        C  0.36309353  0.85834316  0.86021536     0.25500
C860        C  0.33982878  0.87824816  0.86792425    -0.40800
C861        C  0.31339442  0.87830213  0.85077800     0.32400
C862        C  0.30977779  0.85801931  0.82736939     0.14200
F863        F  0.38186791  0.81862118  0.83019927    -0.13200
F864        F  0.29083084  0.89781679  0.85676202    -0.13700
F865        F  0.38895897  0.85757566  0.87609503    -0.16000
F866        F  0.28340126  0.85754362  0.81231982    -0.14500
F867        F  0.33681410  0.77629959  0.83568031    -0.14500
F868        F  0.30241651  0.80510820  0.72094435    -0.15900
C869        C  0.20469598  0.78045140  0.65786655     0.14100
C870        C  0.17801158  0.78060020  0.67467325     0.01100
C871        C  0.17416599  0.75847886  0.69675616     0.16100
C872        C  0.19764800  0.73888299  0.70406131     0.25500
C873        C  0.22526564  0.74035581  0.68889688    -0.40900
C874        C  0.22802391  0.76076216  0.66505621     0.32500
C875        C  0.15644821  0.80618042  0.67212327     0.01200
F876        F  0.14845199  0.75739984  0.71298212    -0.13200
F877        F  0.25491434  0.76450842  0.65143480    -0.13700
C878        C  0.14489894  0.81517374  0.64425341     0.16100
C879        C  0.12664141  0.84069127  0.64188394     0.25500
C880        C  0.11927846  0.85790515  0.66742248    -0.40800
C881        C  0.13040849  0.84838611  0.69540274     0.32400
C882        C  0.14887951  0.82313071  0.69763655     0.14200
F883        F  0.15115990  0.79911747  0.61920955    -0.13200
F884        F  0.12394459  0.86375535  0.72082688    -0.13700
F885        F  0.11610021  0.84833992  0.61446486    -0.16000
F886        F  0.16032015  0.81592622  0.72483053    -0.14500
F887        F  0.20966365  0.80161592  0.63671926    -0.14500
F888        F  0.19479816  0.72171147  0.72885330    -0.15900
C889        C  0.19595995  0.64750903  0.76689699     0.14100
C890        C  0.19924122  0.64542665  0.79808960     0.01100
C891        C  0.22580516  0.65567803  0.81107496     0.16100
C892        C  0.24764342  0.66978795  0.79368410     0.25500
C893        C  0.24319475  0.67508800  0.76270071    -0.40900
C894        C  0.21755361  0.66210707  0.74934081     0.32500
C895        C  0.17356617  0.63712139  0.81770122     0.01200
F896        F  0.22976146  0.65399406  0.84115900    -0.13200
F897        F  0.21167373  0.66508290  0.71977908    -0.13700
C898        C  0.17610085  0.61443540  0.83938475     0.16100
C899        C  0.15393392  0.61094433  0.86154628     0.25500
C900        C  0.12901400  0.63028691  0.86248077    -0.40800
C901        C  0.12574531  0.65167766  0.83958753     0.32400
C902        C  0.14770366  0.65502415  0.81752229     0.14200
F903        F  0.20064312  0.59648732  0.83979554    -0.13200
F904        F  0.10165123  0.67023610  0.83911682    -0.13700
F905        F  0.15791336  0.59007523  0.88318849    -0.16000
F906        F  0.14467838  0.67734659  0.79719727    -0.14500
F907        F  0.17092192  0.63676510  0.75355497    -0.14500
F908        F  0.27307184  0.67862785  0.80768165    -0.15900
C909        C  0.97601825  0.82214647  0.24271420     0.14100
C910        C  0.95489853  0.82487386  0.21954081     0.01100
C911        C  0.95419496  0.85138158  0.20267197     0.16100
C912        C  0.97493143  0.87406506  0.20787015     0.25500
C913        C  0.99687724  0.87096942  0.23019128    -0.40900
C914        C  0.99673994  0.84512878  0.24814582     0.32500
C915        C  0.93446941  0.79998847  0.21121405     0.01200
F916        F  0.93424751  0.85474712  0.18001304    -0.13200
F917        F  0.01774752  0.84133915  0.26971786    -0.13700
C918        C  0.90354246  0.80528712  0.20961830     0.16100
C919        C  0.88506694  0.78590664  0.19370127     0.25500
C920        C  0.89687078  0.76016562  0.17969211    -0.40800
C921        C  0.92711756  0.75287345  0.18452639     0.32400
C922        C  0.94590066  0.77284955  0.19989874     0.14200
F923        F  0.89156416  0.83055508  0.22152810    -0.13200
F924        F  0.93917027  0.72797930  0.17208428    -0.13700
F925        F  0.85586253  0.79356461  0.19008586    -0.16000
F926        F  0.97568704  0.76695933  0.20134430    -0.14500
F927        F  0.97689981  0.79705496  0.25968976    -0.14500
F928        F  0.97394964  0.89892230  0.19051005    -0.15900
C929        C  0.80784053  0.81157946  0.07440249     0.14100
C930        C  0.80053633  0.79921109  0.04653176     0.01100
C931        C  0.80200899  0.76810139  0.04299411     0.16100
C932        C  0.81323159  0.74999773  0.06607115     0.25500
C933        C  0.82431107  0.76277599  0.09285634    -0.40900
C934        C  0.81876289  0.79360424  0.09752977     0.32500
C935        C  0.79409241  0.81932600  0.02086004     0.01200
F936        F  0.79311063  0.75531549  0.01694525    -0.13200
F937        F  0.82334025  0.80672602  0.12448480    -0.13700
C938        C  0.81445366  0.82090026  0.99688572     0.16100
C939        C  0.81242745  0.84398948  0.97587159     0.25500
C940        C  0.78993215  0.86596356  0.97836437    -0.40800
C941        C  0.76805847  0.86291520  0.00091318     0.32400
C942        C  0.77022822  0.83986482  0.02206597     0.14200
F943        F  0.83751348  0.80117193  0.99490727    -0.13200
F944        F  0.74567534  0.88330464  0.00367505    -0.13700
F945        F  0.83290822  0.84520976  0.95339370    -0.16000
F946        F  0.74970571  0.83826384  0.04446859    -0.14500
F947        F  0.80573545  0.84150523  0.07885268    -0.14500
F948        F  0.81367180  0.71999118  0.06188334    -0.15900
C949        C  0.92637640  0.64539544  0.08077668     0.14100
C950        C  0.95203975  0.66237238  0.07426096     0.01100
C951        C  0.95512651  0.69060433  0.08768219     0.16100
C952        C  0.93185258  0.70288346  0.10472420     0.25500
C953        C  0.90538643  0.68678952  0.10978333    -0.40900
C954        C  0.90314051  0.65762742  0.09831376     0.32500
C955        C  0.97236821  0.65406066  0.04906235     0.01200
F956        F  0.97972106  0.70743917  0.08200424    -0.13200
F957        F  0.87768641  0.64180100  0.10247397    -0.13700
C958        C  0.97303952  0.67256002  0.02372542     0.16100
C959        C  0.99274758  0.66681151  0.00014574     0.25500
C960        C  0.01246242  0.64220363  0.00104375    -0.40800
C961        C  0.01103912  0.62281209  0.02588724     0.32400
C962        C  0.99117749  0.62877339  0.04980297     0.14200
F963        F  0.95441025  0.69650305  0.02182191    -0.13200
F964        F  0.02959796  0.59883008  0.02757150    -0.13700
F965        F  0.99229338  0.68544795  0.97619022    -0.16000
F966        F  0.99103282  0.61049264  0.07401083    -0.14500
F967        F  0.92270284  0.61810580  0.06810146    -0.14500
F968        F  0.93388510  0.73180685  0.11348146    -0.15900
C969        C  0.36657391  0.82774667  0.02952512     0.14100
C970        C  0.33866151  0.81420587  0.03452875     0.01100
C971        C  0.31361907  0.82447509  0.01863661     0.16100
C972        C  0.31618248  0.84821490  0.99856869     0.25500
C973        C  0.34392248  0.86263923  0.99406836    -0.40900
C974        C  0.36924076  0.85171070  0.00945525     0.32500
C975        C  0.33449545  0.79184741  0.05865476     0.01200
F976        F  0.28618372  0.81245429  0.02367818    -0.13200
F977        F  0.39638324  0.86479087  0.00596173    -0.13700
C978        C  0.33917515  0.80029894  0.08849490     0.16100
C979        C  0.32914479  0.78220762  0.11183279     0.25500
C980        C  0.31425032  0.75515719  0.10596563    -0.40800
C981        C  0.31193342  0.74546717  0.07604764     0.32400
C982        C  0.32181017  0.76378752  0.05259625     0.14200
F983        F  0.35104523  0.82737601  0.09509734    -0.13200
F984        F  0.29772465  0.71966961  0.06914809    -0.13700
F985        F  0.33229957  0.79220699  0.14023156    -0.16000
F986        F  0.31738599  0.75492451  0.02388216    -0.14500
F987        F  0.39112881  0.81811533  0.04459228    -0.14500
F988        F  0.29117306  0.85723958  0.98386589    -0.15900
C989        C  0.17424983  0.84222499  0.23985049     0.14100
C990        C  0.16801787  0.81702215  0.22218157     0.01100
C991        C  0.13886832  0.81306633  0.21097568     0.16100
C992        C  0.11704469  0.83501975  0.21524925     0.25500
C993        C  0.12367099  0.86087903  0.23157086    -0.40900
C994        C  0.15206585  0.86394186  0.24474934     0.32500
C995        C  0.19252721  0.79774869  0.21071546     0.01200
F996        F  0.13211296  0.78867175  0.19426834    -0.13200
F997        F  0.15903241  0.88905726  0.26024111    -0.13700
C998        C  0.21090931  0.78053829  0.22955693     0.16100
C999        C  0.23298184  0.76151451  0.21735333     0.25500
C1000       C  0.23689944  0.75933778  0.18600061    -0.40800
C1001       C  0.21899324  0.77804285  0.16770738     0.32400
C1002       C  0.19735509  0.79675163  0.17981870     0.14200
F1003       F  0.20709030  0.78168154  0.25968958    -0.13200
F1004       F  0.22229102  0.77822351  0.13750438    -0.13700
F1005       F  0.25009421  0.74562282  0.23641495    -0.16000
F1006       F  0.18095037  0.81414847  0.16106566    -0.14500
F1007       F  0.20235280  0.84696032  0.25029432    -0.14500
F1008       F  0.08964677  0.83149418  0.20264082    -0.15900
C1009       C  0.20641549  0.69990445  0.06179152     0.14100
C1010       C  0.20811662  0.66987682  0.05301993     0.01100
C1011       C  0.22906189  0.65103143  0.06701849     0.16100
C1012       C  0.24709652  0.66191557  0.09029584     0.25500
C1013       C  0.24388621  0.69144364  0.10044253    -0.40900
C1014       C  0.22434117  0.71062833  0.08484449     0.32500
C1015       C  0.18734034  0.65878488  0.02971101     0.01200
F1016       F  0.23191037  0.62212889  0.05828419    -0.13200
F1017       F  0.22226892  0.73993755  0.09216728    -0.13700
C1018       C  0.18640472  0.67287838  0.00163848     0.16100
C1019       C  0.16345954  0.66654207  0.98145202     0.25500
C1020       C  0.14128996  0.64554806  0.98868871    -0.40800
C1021       C  0.14305678  0.63022196  0.01611478     0.32400
C1022       C  0.16586559  0.63690438  0.03656526     0.14200
F1023       F  0.20728778  0.69355472  0.99417882    -0.13200
F1024       F  0.12159663  0.61028303  0.02394782    -0.13700
F1025       F  0.16272925  0.68119120  0.95486764    -0.16000
F1026       F  0.16587078  0.62339792  0.06376428    -0.14500
F1027       F  0.18639981  0.71871059  0.04879975    -0.14500
F1028       F  0.26713581  0.64341976  0.10311623    -0.15900
C1029       C  0.95471940  0.23468162  0.02784860     0.14100
C1030       C  0.94385786  0.20654433  0.03627720     0.01100
C1031       C  0.95489564  0.18097838  0.02189506     0.16100
C1032       C  0.97724259  0.18318276  0.00020553     0.25500
C1033       C  0.98934461  0.21122459  0.99232482    -0.40900
C1034       C  0.97712730  0.23708326  0.00584280     0.32500
C1035       C  0.92244072  0.20278286  0.06127606     0.01200
F1036       F  0.94467076  0.15352816  0.02968163    -0.13200
F1037       F  0.98687810  0.26465357  0.99799608    -0.13700
C1038       C  0.89397216  0.19089468  0.05579735     0.16100
C1039       C  0.87670128  0.17961378  0.07933446     0.25500
C1040       C  0.88807979  0.17925313  0.10879711    -0.40800
C1041       C  0.91529613  0.19410132  0.11450341     0.32400
C1042       C  0.93236215  0.20565190  0.09090095     0.14200
F1043       F  0.88383394  0.18824808  0.02728957    -0.13200
F1044       F  0.92605053  0.19631655  0.14281770    -0.13700
F1045       F  0.85000477  0.16704055  0.07256433    -0.16000
F1046       F  0.95974808  0.21733514  0.09671885    -0.14500
F1047       F  0.94367220  0.25974347  0.04098540    -0.14500
F1048       F  0.98719820  0.15752205  0.98734195    -0.15900
C1049       C  0.95627730  0.01644811  0.24207207     0.14100
C1050       C  0.96128477  0.04075641  0.22281142     0.01100
C1051       C  0.98986260  0.04444878  0.21004155     0.16100
C1052       C  0.01227381  0.02309702  0.21442757     0.25500
C1053       C  0.00685323  0.99790881  0.23225736    -0.40900
C1054       C  0.97903778  0.99523371  0.24692909     0.32500
C1055       C  0.93625471  0.05980447  0.21196963     0.01200
F1056       F  0.99551530  0.06809599  0.19190889    -0.13200
F1057       F  0.97314500  0.97091254  0.26403459    -0.13700
C1058       C  0.92028313  0.07938453  0.23081964     0.16100
C1059       C  0.89913504  0.09951664  0.21883592     0.25500
C1060       C  0.89356425  0.10031461  0.18765284    -0.40800
C1061       C  0.90983496  0.08014429  0.16926656     0.32400
C1062       C  0.93005481  0.05987200  0.18129994     0.14200
F1063       F  0.92600206  0.07985772  0.26064071    -0.13200
F1064       F  0.90670872  0.08041812  0.13900826    -0.13700
F1065       F  0.88555935  0.11879279  0.23779742    -0.16000
F1066       F  0.94432252  0.04053535  0.16260891    -0.14500
F1067       F  0.92883463  0.01211987  0.25442314    -0.14500
F1068       F  0.03910777  0.02661901  0.20055146    -0.15900
C1069       C  0.83434961  0.08019205  0.05890008     0.14100
C1070       C  0.80668050  0.06539326  0.06034307     0.01100
C1071       C  0.78645339  0.07287422  0.08330882     0.16100
C1072       C  0.79454713  0.09352151  0.10542900     0.25500
C1073       C  0.82273748  0.10742231  0.10467370    -0.40900
C1074       C  0.84247077  0.10057709  0.08107288     0.32500
C1075       C  0.80061790  0.04014738  0.03969375     0.01200
F1076       F  0.75990724  0.05838993  0.08575258    -0.13200
F1077       F  0.87086405  0.11128419  0.08113463    -0.13700
C1078       C  0.82070732  0.01596222  0.03844355     0.16100
C1079       C  0.81716954  0.99345200  0.01711782     0.25500
C1080       C  0.79328248  0.99446506  0.99664003    -0.40800
C1081       C  0.77196719  0.01761178  0.99923968     0.32400
C1082       C  0.77569391  0.04034372  0.02054629     0.14200
F1083       F  0.84413554  0.01437541  0.05770953    -0.13200
F1084       F  0.74850572  0.01925733  0.98005393    -0.13700
F1085       F  0.83741359  0.97078413  0.01630762    -0.16000
F1086       F  0.75580754  0.06330565  0.02145780    -0.14500
F1087       F  0.85431231  0.07355360  0.03688646    -0.14500
F1088       F  0.77589944  0.09771025  0.12893227    -0.15900
C1089       C  0.30198705  0.05416472  0.78728831     0.14100
C1090       C  0.32957369  0.05824190  0.80185793     0.01100
C1091       C  0.34767694  0.08242098  0.79336371     0.16100
C1092       C  0.33719420  0.10333648  0.77240889     0.25500
C1093       C  0.30885240  0.10031028  0.75929498    -0.40900
C1094       C  0.29160088  0.07512029  0.76649892     0.32500
C1095       C  0.33694493  0.03968843  0.82851825     0.01200
F1096       F  0.37442777  0.08702512  0.80694432    -0.13200
F1097       F  0.26352971  0.07211550  0.75537807    -0.13700
C1098       C  0.36212468  0.02073601  0.82927511     0.16100
C1099       C  0.36668527  0.00138157  0.85369059     0.25500
C1100       C  0.34608704  0.00073059  0.87769112    -0.40800
C1101       C  0.32186823  0.02093713  0.87742373     0.32400
C1102       C  0.31746253  0.04017661  0.85324748     0.14200
F1103       F  0.38142993  0.01990055  0.80577465    -0.13200
F1104       F  0.30193627  0.02173526  0.90041785    -0.13700
F1105       F  0.39015384  0.98206585  0.85293816    -0.16000
F1106       F  0.29364381  0.05908532  0.85372464    -0.14500
F1107       F  0.28422254  0.03073859  0.79463848    -0.14500
F1108       F  0.35401008  0.12747468  0.76606315    -0.15900
C1109       C  0.16498412  0.18628816  0.84759779     0.14100
C1110       C  0.16925164  0.20960744  0.82712625     0.01100
C1111       C  0.15043708  0.23475011  0.82835811     0.16100
C1112       C  0.12770829  0.23661640  0.85005237     0.25500
C1113       C  0.12321652  0.21307770  0.87044614    -0.40900
C1114       C  0.14209251  0.18784694  0.86887554     0.32500
C1115       C  0.19139675  0.20563075  0.80281421     0.01200
F1116       F  0.15371990  0.25712730  0.80816778    -0.13200
F1117       F  0.13834364  0.16449196  0.88786662    -0.13700
C1118       C  0.18160582  0.19751634  0.77421407     0.16100
C1119       C  0.20184537  0.18614581  0.75316286     0.25500
C1120       C  0.23232018  0.18181884  0.76074550    -0.40800
C1121       C  0.24257109  0.19472888  0.78775450     0.32400
C1122       C  0.22216663  0.20568242  0.80894451     0.14200
F1123       F  0.15203301  0.19871925  0.76734899    -0.13200
F1124       F  0.27222083  0.19555384  0.79433378    -0.13700
F1125       F  0.19123987  0.17926428  0.72559408    -0.16000
F1126       F  0.23229142  0.21499740  0.83600452    -0.14500
F1127       F  0.18233823  0.16136973  0.84615586    -0.14500
F1128       F  0.10919766  0.26069710  0.85015023    -0.15900
C1129       C  0.19947438  0.07884535  0.66034064     0.14100
C1130       C  0.20970466  0.04943437  0.66387313     0.01100
C1131       C  0.23887598  0.04457773  0.67476026     0.16100
C1132       C  0.25612484  0.06859542  0.68519004     0.25500
C1133       C  0.24403051  0.09763609  0.68544612    -0.40900
C1134       C  0.21657906  0.10269018  0.67072761     0.32500
C1135       C  0.18801185  0.02452172  0.66113642     0.01200
F1136       F  0.24980727  0.01638015  0.67711192    -0.13200
F1137       F  0.20518343  0.13069523  0.66840195    -0.13700
C1138       C  0.17237928  0.01941291  0.63435625     0.16100
C1139       C  0.14818148  0.99950717  0.63364337     0.25500
C1140       C  0.13892074  0.98457375  0.65987766    -0.40800
C1141       C  0.15555452  0.98888540  0.68634096     0.32400
C1142       C  0.17976928  0.00856762  0.68690165     0.14200
F1143       F  0.18002211  0.03440520  0.60908789    -0.13200
F1144       F  0.14815021  0.97448050  0.71203041    -0.13700
F1145       F  0.13311192  0.99589614  0.60754896    -0.16000
F1146       F  0.19411107  0.01337543  0.71323318    -0.14500
F1147       F  0.17157677  0.08436799  0.64961740    -0.14500
F1148       F  0.28337880  0.06295544  0.69726495    -0.15900
C1149       C  0.34893068  0.07718195  0.08793236     0.14100
C1150       C  0.33272410  0.05266684  0.07687636     0.01100
C1151       C  0.30302968  0.04841860  0.08631935     0.16100
C1152       C  0.28928039  0.06896676  0.10539695     0.25500
C1153       C  0.30504930  0.09400226  0.11570358    -0.40900
C1154       C  0.33515823  0.09752849  0.10760322     0.32500
C1155       C  0.34517232  0.03240509  0.05376877     0.01200
F1156       F  0.28672389  0.02527564  0.07550106    -0.13200
F1157       F  0.35077308  0.12112013  0.11811298    -0.13700
C1158       C  0.34842785  0.00181090  0.06000211     0.16100
C1159       C  0.35247345  0.98127969  0.03667696     0.25500
C1160       C  0.35341699  0.99116960  0.00689957    -0.40800
C1161       C  0.35217933  0.02185217  0.00078435     0.32400
C1162       C  0.34822401  0.04241371  0.02409735     0.14200
F1163       F  0.34579477  0.99174674  0.08854027    -0.13200
F1164       F  0.35281275  0.03166568  0.97203800    -0.13700
F1165       F  0.35363943  0.95165859  0.04297328    -0.16000
F1166       F  0.34488014  0.07179675  0.01745546    -0.14500
F1167       F  0.37766499  0.08173904  0.07914319    -0.14500
F1168       F  0.25996157  0.06530115  0.11260091    -0.15900
C1169       C  0.23850245  0.03965917  0.20565342     0.14100
C1170       C  0.21104907  0.04539170  0.22030794     0.01100
C1171       C  0.20238707  0.07517694  0.22514481     0.16100
C1172       C  0.21897381  0.09847699  0.21278722     0.25500
C1173       C  0.24415739  0.09253322  0.19461291    -0.40900
C1174       C  0.25492988  0.06310354  0.19280278     0.32500
C1175       C  0.18881813  0.02115111  0.22538037     0.01200
F1176       F  0.17598109  0.08170890  0.23882383    -0.13200
F1177       F  0.27941997  0.05661712  0.17596237    -0.13700
C1178       C  0.17399881  0.01780397  0.25304400     0.16100
C1179       C  0.14917882  0.99873510  0.25573680     0.25500
C1180       C  0.13861846  0.98269700  0.23072420    -0.40800
C1181       C  0.15483058  0.98476602  0.20360318     0.32400
C1182       C  0.17931459  0.00388564  0.20094241     0.14200
F1183       F  0.18307646  0.03366087  0.27727114    -0.13200
F1184       F  0.14678410  0.96866888  0.17915361    -0.13700
F1185       F  0.13498860  0.99681093  0.28255716    -0.16000
F1186       F  0.19257928  0.00686358  0.17372033    -0.14500
F1187       F  0.24809910  0.01114908  0.20167305    -0.14500
F1188       F  0.20860454  0.12681398  0.21607167    -0.15900
C1189       C  0.20212991  0.20342656  0.07805449     0.14100
C1190       C  0.17996034  0.18424088  0.06711425     0.01100
C1191       C  0.17808333  0.15517280  0.07837012     0.16100
C1192       C  0.19833416  0.14508998  0.09978255     0.25500
C1193       C  0.22045807  0.16428797  0.11173869    -0.40900
C1194       C  0.22249649  0.19346931  0.09974477     0.32500
C1195       C  0.16037336  0.19309172  0.04198370     0.01200
F1196       F  0.15716783  0.13600534  0.06766076    -0.13200
F1197       F  0.24556247  0.21166190  0.10678363    -0.13700
C1198       C  0.16216632  0.17738392  0.01480635     0.16100
C1199       C  0.14143139  0.18272002  0.99212108     0.25500
C1200       C  0.11884690  0.20428657  0.99596637    -0.40800
C1201       C  0.11788224  0.22108275  0.02259314     0.32400
C1202       C  0.13843014  0.21534937  0.04558456     0.14200
F1203       F  0.18378379  0.15642213  0.01049671    -0.13200
F1204       F  0.09607406  0.24181456  0.02698765    -0.13700
F1205       F  0.14342371  0.16678044  0.96631413    -0.16000
F1206       F  0.13603271  0.23045115  0.07184519    -0.14500
F1207       F  0.20530281  0.23117465  0.06629527    -0.14500
F1208       F  0.19728380  0.11575729  0.10729950    -0.15900
C1209       C  0.33278878  0.30500156  0.27407532     0.14100
C1210       C  0.33466130  0.30051832  0.30513795     0.01100
C1211       C  0.32700912  0.27255908  0.31681546     0.16100
C1212       C  0.31522702  0.25036648  0.29827703     0.25500
C1213       C  0.30948635  0.25598918  0.26760835    -0.40900
C1214       C  0.32069916  0.28285941  0.25537475     0.32500
C1215       C  0.34154924  0.32548733  0.32596270     0.01200
F1216       F  0.32910030  0.26736536  0.34668185    -0.13200
F1217       F  0.31892302  0.28870284  0.22568690    -0.13700
C1218       C  0.32082522  0.34887439  0.32958251     0.16100
C1219       C  0.32453086  0.37013620  0.35228670     0.25500
C1220       C  0.34927079  0.36867040  0.37177803    -0.40800
C1221       C  0.37074848  0.34593875  0.36723752     0.32400
C1222       C  0.36676290  0.32442794  0.34470754     0.14200
F1223       F  0.29621423  0.35039321  0.31186205    -0.13200
F1224       F  0.39505028  0.34380730  0.38530509    -0.13700
F1225       F  0.30384871  0.39224182  0.35510225    -0.16000
F1226       F  0.38725168  0.30219789  0.34150207    -0.14500
F1227       F  0.34166852  0.33131628  0.26197575    -0.14500
F1228       F  0.30886675  0.22348641  0.31072929    -0.15900
C1229       C  0.37054245  0.59203536  0.56469038     0.14100
C1230       C  0.37002234  0.56111747  0.56923085     0.01100
C1231       C  0.36048760  0.55009937  0.59702465     0.16100
C1232       C  0.34702135  0.56923937  0.61793178     0.25500
C1233       C  0.34165449  0.59950711  0.61060419    -0.40900
C1234       C  0.35676710  0.61107822  0.58535467     0.32500
C1235       C  0.37176867  0.54062881  0.54329016     0.01200
F1236       F  0.36149584  0.52036271  0.60271215    -0.13200
F1237       F  0.35531480  0.64048297  0.57883845    -0.13700
C1238       C  0.39378078  0.51830129  0.54113663     0.16100
C1239       C  0.39202320  0.49651151  0.51858527     0.25500
C1240       C  0.36781056  0.49643502  0.49830013    -0.40800
C1241       C  0.34632428  0.51937949  0.50019154     0.32400
C1242       C  0.34848106  0.54135825  0.52222385     0.14200
F1243       F  0.41654917  0.51729127  0.56119161    -0.13200
F1244       F  0.32297463  0.52049235  0.48082079    -0.13700
F1245       F  0.41320695  0.47474228  0.51750743    -0.16000
F1246       F  0.32685399  0.56268129  0.52393345    -0.14500
F1247       F  0.38166005  0.60348752  0.53883300    -0.14500
F1248       F  0.33880519  0.55777089  0.64479145    -0.15900
C1249       C  0.34205289  0.50375784  0.32022675     0.14100
C1250       C  0.34754842  0.53420860  0.32551342     0.01100
C1251       C  0.36097092  0.54286685  0.35260174     0.16100
C1252       C  0.36723303  0.52153103  0.37473108     0.25500
C1253       C  0.36028818  0.49136747  0.36989101    -0.40900
C1254       C  0.34821953  0.48255323  0.34231311     0.32500
C1255       C  0.33656469  0.55680645  0.30387176     0.01200
F1256       F  0.36614866  0.57214478  0.35836219    -0.13200
F1257       F  0.34115893  0.45350067  0.33734389    -0.13700
C1258       C  0.30576988  0.55897030  0.29808586     0.16100
C1259       C  0.29513903  0.57795516  0.27571868     0.25500
C1260       C  0.31509183  0.59505631  0.25829936    -0.40800
C1261       C  0.34568289  0.59469055  0.26582938     0.32400
C1262       C  0.35637966  0.57551939  0.28828333     0.14200
F1263       F  0.28596676  0.54216846  0.31380784    -0.13200
F1264       F  0.36551354  0.61181453  0.25087105    -0.13700
F1265       F  0.26519840  0.57916793  0.27058578    -0.16000
F1266       F  0.38622661  0.57418843  0.29381158    -0.14500
F1267       F  0.32963846  0.49472629  0.29403254    -0.14500
F1268       F  0.37809715  0.53053755  0.40160285    -0.15900
C1269       C  0.33661935  0.32179280  0.51897532     0.14100
C1270       C  0.33941309  0.33044079  0.54908597     0.01100
C1271       C  0.34934354  0.35944401  0.55583836     0.16100
C1272       C  0.35612442  0.37951688  0.53265648     0.25500
C1273       C  0.35269436  0.37086694  0.50258919    -0.40900
C1274       C  0.34293401  0.34191953  0.49595032     0.32500
C1275       C  0.32923685  0.30962705  0.57277436     0.01200
F1276       F  0.35176994  0.36846896  0.58474855    -0.13200
F1277       F  0.33841474  0.33354063  0.46710390    -0.13700
C1278       C  0.34409071  0.28225276  0.57704697     0.16100
C1279       C  0.33076346  0.25964577  0.59410318     0.25500
C1280       C  0.30281400  0.26417313  0.60762802    -0.40800
C1281       C  0.28823774  0.29179908  0.60388740     0.32400
C1282       C  0.30156885  0.31452278  0.58701119     0.14200
F1283       F  0.37059938  0.27681251  0.56310998    -0.13200
F1284       F  0.26000758  0.29590194  0.61446444    -0.13700
F1285       F  0.34382412  0.23241881  0.59530375    -0.16000
F1286       F  0.28629850  0.34036870  0.58243391    -0.14500
F1287       F  0.32621244  0.29423442  0.51192797    -0.14500
F1288       F  0.36470524  0.40776147  0.53948627    -0.15900
C1289       C  0.13995026  0.13206664  0.32964159     0.14100
C1290       C  0.15496028  0.15922975  0.32586420     0.01100
C1291       C  0.14968265  0.18273228  0.34588731     0.16100
C1292       C  0.12919939  0.17948172  0.36919678     0.25500
C1293       C  0.11322504  0.15262134  0.37274707    -0.40900
C1294       C  0.11923584  0.12868774  0.35302077     0.32500
C1295       C  0.17714212  0.16351934  0.30189245     0.01200
F1296       F  0.16441387  0.20902086  0.34270490    -0.13200
F1297       F  0.10462285  0.10231834  0.35584002    -0.13700
C1298       C  0.16832651  0.17444071  0.27388999     0.16100
C1299       C  0.18969697  0.18576661  0.25397588     0.25500
C1300       C  0.22019684  0.18724350  0.26240072    -0.40800
C1301       C  0.22900020  0.17182732  0.28860206     0.32400
C1302       C  0.20759525  0.16096482  0.30854423     0.14200
F1303       F  0.13889315  0.17535010  0.26641395    -0.13200
F1304       F  0.25835481  0.16858371  0.29578759    -0.13700
F1305       F  0.18036730  0.19442763  0.22645455    -0.16000
F1306       F  0.21648521  0.14952656  0.33522905    -0.14500
F1307       F  0.14527829  0.10897540  0.31064778    -0.14500
F1308       F  0.12522518  0.20268858  0.38839463    -0.15900
C1309       C  0.14908171  0.13040033  0.52896621     0.14100
C1310       C  0.15268140  0.15746144  0.54443830     0.01100
C1311       C  0.13289567  0.18112075  0.53868615     0.16100
C1312       C  0.11033425  0.17822794  0.51735584     0.25500
C1313       C  0.10701191  0.15150324  0.50097993    -0.40900
C1314       C  0.12632806  0.12734148  0.50750188     0.32500
C1315       C  0.17741532  0.16215340  0.56598925     0.01200
F1316       F  0.13603975  0.20757448  0.55319700    -0.13200
F1317       F  0.12381633  0.10104720  0.49261236    -0.13700
C1318       C  0.20718380  0.16383474  0.55606678     0.16100
C1319       C  0.22952159  0.17498470  0.57500833     0.25500
C1320       C  0.22225658  0.18567284  0.60399017    -0.40800
C1321       C  0.19313501  0.17962433  0.61500207     0.32400
C1322       C  0.17090587  0.16870579  0.59598232     0.14200
F1323       F  0.21432306  0.15630386  0.52747611    -0.13200
F1324       F  0.18583719  0.18407101  0.64415982    -0.13700
F1325       F  0.25808220  0.17588888  0.56460073    -0.16000
F1326       F  0.14261121  0.16539809  0.60662441    -0.14500
F1327       F  0.16763198  0.10702282  0.53459947    -0.14500
F1328       F  0.09185787  0.20188710  0.51270615    -0.15900
C1329       C  0.17741417  0.35192496  0.13686668     0.14100
C1330       C  0.18285303  0.33866650  0.16490950     0.01100
C1331       C  0.16266560  0.34424461  0.18842554     0.16100
C1332       C  0.13792989  0.36297459  0.18433714     0.25500
C1333       C  0.13259154  0.37695251  0.15653077    -0.40900
C1334       C  0.15253549  0.37092736  0.13269036     0.32500
C1335       C  0.20807679  0.31728815  0.16980570     0.01200
F1336       F  0.16643177  0.33076333  0.21538171    -0.13200
F1337       F  0.14837552  0.38384395  0.10554733    -0.13700
C1338       C  0.22874138  0.32211497  0.19305041     0.16100
C1339       C  0.24705816  0.29879060  0.20336001     0.25500
C1340       C  0.24553508  0.27025171  0.19030789    -0.40800
C1341       C  0.22630317  0.26616333  0.16567960     0.32400
C1342       C  0.20809169  0.28948713  0.15528405     0.14200
F1343       F  0.22915021  0.34868448  0.20768304    -0.13200
F1344       F  0.22192970  0.23845941  0.15443134    -0.13700
F1345       F  0.26278311  0.30304401  0.22887715    -0.16000
F1346       F  0.18786389  0.28377512  0.13339593    -0.14500
F1347       F  0.19642832  0.34678040  0.11366659    -0.14500
F1348       F  0.11876490  0.36681809  0.20768244    -0.15900
C1349       C  0.16599330  0.52363341  0.11872097     0.14100
C1350       C  0.16832493  0.54464095  0.14197043     0.01100
C1351       C  0.14593678  0.54575064  0.16407620     0.16100
C1352       C  0.12274271  0.52492417  0.16419013     0.25500
C1353       C  0.12122651  0.50270336  0.14196803    -0.40900
C1354       C  0.14239924  0.50302171  0.11848725     0.32500
C1355       C  0.19576621  0.56267056  0.14606449     0.01200
F1356       F  0.14762738  0.56584639  0.18678005    -0.13200
F1357       F  0.14138240  0.48229755  0.09632523    -0.13700
C1358       C  0.19428158  0.59392357  0.14739272     0.16100
C1359       C  0.21820756  0.61026434  0.15914492     0.25500
C1360       C  0.24350092  0.59547817  0.17114512    -0.40800
C1361       C  0.24671816  0.56462842  0.16490988     0.32400
C1362       C  0.22280939  0.54838103  0.15312852     0.14200
F1363       F  0.16897744  0.60844464  0.13890248    -0.13200
F1364       F  0.27285902  0.54990909  0.16950123    -0.13700
F1365       F  0.21570251  0.64044366  0.16075036    -0.16000
F1366       F  0.22541387  0.51827847  0.15057187    -0.14500
F1367       F  0.18717549  0.52241277  0.09689965    -0.14500
F1368       F  0.10213998  0.52606934  0.18656493    -0.15900
C1369       C  0.15400996  0.54169750  0.66943558     0.14100
C1370       C  0.16854856  0.55299140  0.69483928     0.01100
C1371       C  0.15962208  0.54296872  0.72328178     0.16100
C1372       C  0.13732982  0.52109905  0.72617536     0.25500
C1373       C  0.12388385  0.50842494  0.70054399    -0.40900
C1374       C  0.13194888  0.51980824  0.67218109     0.32500
C1375       C  0.19461325  0.57318767  0.69097873     0.01200
F1376       F  0.17287431  0.55402833  0.74824473    -0.13200
F1377       F  0.11912531  0.50928805  0.64676581    -0.13700
C1378       C  0.19158364  0.60034013  0.67553768     0.16100
C1379       C  0.21692726  0.61652675  0.66668829     0.25500
C1380       C  0.24592435  0.60574906  0.67296871    -0.40800
C1381       C  0.24866394  0.57941363  0.69001987     0.32400
C1382       C  0.22335844  0.56341134  0.69903974     0.14200
F1383       F  0.16401192  0.61040608  0.66766168    -0.13200
F1384       F  0.27601105  0.56809820  0.69647831    -0.13700
F1385       F  0.21283127  0.64134839  0.64991513    -0.16000
F1386       F  0.22709480  0.53708320  0.71362646    -0.14500
F1387       F  0.16229500  0.55079080  0.64164052    -0.14500
F1388       F  0.12961998  0.51183577  0.75406011    -0.15900
C1389       C  0.24013099  0.31750243  0.69341919     0.14100
C1390       C  0.21097393  0.31469543  0.70504691     0.01100
C1391       C  0.19913735  0.28605104  0.70930985     0.16100
C1392       C  0.21447427  0.26101663  0.69866911     0.25500
C1393       C  0.24186417  0.26404179  0.68323165    -0.40900
C1394       C  0.25573717  0.29227442  0.68302631     0.32500
C1395       C  0.19078448  0.34096140  0.70768760     0.01200
F1396       F  0.17124932  0.28248332  0.72090662    -0.13200
F1397       F  0.28317569  0.29613187  0.67063387    -0.13700
C1398       C  0.18332189  0.35706175  0.68178137     0.16100
C1399       C  0.16004323  0.37796117  0.68222836     0.25500
C1400       C  0.14350314  0.38325869  0.70867594    -0.40800
C1401       C  0.15199658  0.36811760  0.73502015     0.32400
C1402       C  0.17540344  0.34716502  0.73447878     0.14200
F1403       F  0.19726002  0.35108147  0.65538169    -0.13200
F1404       F  0.13669269  0.37231739  0.76097951    -0.13700
F1405       F  0.15318156  0.39228719  0.65634992    -0.16000
F1406       F  0.18231763  0.33205040  0.75987442    -0.14500
F1407       F  0.25262360  0.34490966  0.69027050    -0.14500
F1408       F  0.20130961  0.23392644  0.70135806    -0.15900
C1409       C  0.21735527  0.65832683  0.55785268     0.14100
C1410       C  0.20143822  0.68410118  0.56569155     0.01100
C1411       C  0.20968613  0.70001522  0.59141605     0.16100
C1412       C  0.23431792  0.69064265  0.60853839     0.25500
C1413       C  0.25118538  0.66524535  0.60020567    -0.40900
C1414       C  0.24136628  0.64858406  0.57511948     0.32500
C1415       C  0.17633886  0.69363908  0.54642255     0.01200
F1416       F  0.19361630  0.72427436  0.60019554    -0.13200
F1417       F  0.25382987  0.62188984  0.56778833    -0.13700
C1418       C  0.15068029  0.67576188  0.54443743     0.16100
C1419       C  0.12995254  0.68036942  0.52151723     0.25500
C1420       C  0.13455789  0.70296703  0.50010021    -0.40800
C1421       C  0.15935668  0.72202754  0.50322258     0.32400
C1422       C  0.18013494  0.71732864  0.52622885     0.14200
F1423       F  0.14650830  0.65287032  0.56389764    -0.13200
F1424       F  0.16466411  0.74379437  0.48279299    -0.13700
F1425       F  0.10568089  0.66226105  0.51989439    -0.16000
F1426       F  0.20507057  0.73452238  0.52751575    -0.14500
F1427       F  0.20948680  0.64236936  0.53324205    -0.14500
F1428       F  0.24124318  0.70623821  0.63342509    -0.15900
C1429       C  0.21046095  0.69693302  0.27559184     0.14100
C1430       C  0.21769964  0.68983842  0.30529924     0.01100
C1431       C  0.24394870  0.67351063  0.31120115     0.16100
C1432       C  0.26109348  0.66189762  0.28763041     0.25500
C1433       C  0.25203981  0.66635719  0.25785057    -0.40900
C1434       C  0.22731423  0.68499502  0.25202339     0.32500
C1435       C  0.19503526  0.69406297  0.32914701     0.01200
F1436       F  0.25181197  0.66718592  0.33984243    -0.13200
F1437       F  0.21862536  0.69042259  0.22342224    -0.13700
C1438       C  0.18091100  0.66883348  0.34114150     0.16100
C1439       C  0.15774564  0.67185183  0.36195785     0.25500
C1440       C  0.14799555  0.70038381  0.37135139    -0.40800
C1441       C  0.16252358  0.72574800  0.35939380     0.32400
C1442       C  0.18572606  0.72255705  0.33837363     0.14200
F1443       F  0.18887411  0.64106879  0.33173961    -0.13200
F1444       F  0.15412227  0.75371478  0.36764037    -0.13700
F1445       F  0.14460168  0.64662178  0.37237716    -0.16000
F1446       F  0.19898637  0.74726686  0.32689713    -0.14500
F1447       F  0.18559391  0.71325355  0.26934524    -0.14500
F1448       F  0.28520927  0.64462692  0.29406095    -0.15900
C1449       C  0.96324616  0.69329257  0.59155292     0.14100
C1450       C  0.95260565  0.70791009  0.56596391     0.01100
C1451       C  0.92210836  0.71494535  0.56410330     0.16100
C1452       C  0.90200966  0.70430991  0.58568199     0.25500
C1453       C  0.91181479  0.68533374  0.60899917    -0.40900
C1454       C  0.94320828  0.68270893  0.61328628     0.32500
C1455       C  0.97224568  0.71160917  0.53945545     0.01200
F1456       F  0.91155383  0.73050295  0.54027836    -0.13200
F1457       F  0.95503457  0.67052709  0.63836445    -0.13700
C1458       C  0.96973713  0.69127391  0.51567380     0.16100
C1459       C  0.98939764  0.69256863  0.49133776     0.25500
C1460       C  0.01198209  0.71436140  0.49020613    -0.40800
C1461       C  0.01351647  0.73575341  0.51333747     0.32400
C1462       C  0.99399710  0.73413207  0.53799365     0.14200
F1463       F  0.94879698  0.66938676  0.51658760    -0.13200
F1464       F  0.03484407  0.75727253  0.51285926    -0.13700
F1465       F  0.98652272  0.67224092  0.46896791    -0.16000
F1466       F  0.99669826  0.75411405  0.56067279    -0.14500
F1467       F  0.99298044  0.68772653  0.59467249    -0.14500
F1468       F  0.87247498  0.71035517  0.58221215    -0.15900
C1469       C  0.92217501  0.57393673  0.70856223     0.14100
C1470       C  0.92054880  0.54681261  0.69291760     0.01100
C1471       C  0.90015151  0.54395334  0.66919905     0.16100
C1472       C  0.88387189  0.56869715  0.65932046     0.25500
C1473       C  0.88693427  0.59637628  0.67371423    -0.40900
C1474       C  0.90595095  0.59868514  0.69858796     0.32500
C1475       C  0.94523961  0.52499091  0.69582902     0.01200
F1476       F  0.89879962  0.51813850  0.65330781    -0.13200
F1477       F  0.91226127  0.62591817  0.71019254    -0.13700
C1478       C  0.95058054  0.50956091  0.72263269     0.16100
C1479       C  0.97580225  0.49098013  0.72533573     0.25500
C1480       C  0.99611712  0.48783976  0.70126987    -0.40800
C1481       C  0.99036899  0.50330453  0.67444204     0.32400
C1482       C  0.96530437  0.52163761  0.67182378     0.14200
F1483       F  0.93138782  0.51250641  0.74607160    -0.13200
F1484       F  0.00955645  0.50159361  0.65086957    -0.13700
F1485       F  0.98008595  0.47583376  0.75127917    -0.16000
F1486       F  0.96123620  0.53716773  0.64603632    -0.14500
F1487       F  0.94246683  0.57757579  0.73083733    -0.14500
F1488       F  0.86920529  0.56667144  0.63291049    -0.15900
C1489       C  0.80077023  0.56705001  0.58620687     0.14100
C1490       C  0.80033304  0.57378353  0.55556006     0.01100
C1491       C  0.80810125  0.60250436  0.54620575     0.16100
C1492       C  0.81929569  0.62320450  0.56659202     0.25500
C1493       C  0.82417404  0.61525499  0.59686631    -0.40900
C1494       C  0.81227939  0.58768948  0.60682275     0.32500
C1495       C  0.79494959  0.55046942  0.53274455     0.01200
F1496       F  0.80612904  0.61005271  0.51684168    -0.13200
F1497       F  0.81294227  0.57956909  0.63599955    -0.13700
C1498       C  0.76642804  0.53830640  0.52836567     0.16100
C1499       C  0.76150235  0.51784576  0.50511971     0.25500
C1500       C  0.78525751  0.50882410  0.48610782    -0.40800
C1501       C  0.81390514  0.52102786  0.49095657     0.32400
C1502       C  0.81861329  0.54156530  0.51398992     0.14200
F1503       F  0.74328002  0.54656402  0.54633451    -0.13200
F1504       F  0.83753487  0.51326400  0.47339465    -0.13700
F1505       F  0.73352663  0.50665552  0.50158516    -0.16000
F1506       F  0.84651843  0.55276127  0.51815898    -0.14500
F1507       F  0.79190491  0.53977470  0.59596299    -0.14500
F1508       F  0.82597385  0.65086031  0.55621852    -0.15900
C1509       C  0.92039951  0.70645369  0.30566091     0.14100
C1510       C  0.94987592  0.70825428  0.29502348     0.01100
C1511       C  0.95573135  0.70189378  0.26489078     0.16100
C1512       C  0.93307187  0.69090393  0.24644085     0.25500
C1513       C  0.90447653  0.68403722  0.25837695    -0.40900
C1514       C  0.89782323  0.69457299  0.28753340     0.32500
C1515       C  0.97496064  0.71037928  0.31640612     0.01200
F1516       F  0.98388956  0.70479734  0.25376998    -0.13200
F1517       F  0.86973882  0.69286459  0.29897517    -0.13700
C1518       C  0.99000572  0.68407635  0.32427353     0.16100
C1519       C  0.01229176  0.68436794  0.34604974     0.25500
C1520       C  0.02029319  0.71121164  0.36052151    -0.40800
C1521       C  0.00598040  0.73793403  0.35157097     0.32400
C1522       C  0.98320230  0.73741464  0.32990996     0.14200
F1523       F  0.98234679  0.65771500  0.31138346    -0.13200
F1524       F  0.01338928  0.76443292  0.36424846    -0.13700
F1525       F  0.02572310  0.65807406  0.35308047    -0.16000
F1526       F  0.96900814  0.76315219  0.32236685    -0.14500
F1527       F  0.91389982  0.71432714  0.33430398    -0.14500
F1528       F  0.93963042  0.68629281  0.21713873    -0.15900
C1529       C  0.76805769  0.54344543  0.33289840     0.14100
C1530       C  0.78650840  0.53515706  0.30856004     0.01100
C1531       C  0.79606075  0.50525934  0.30630698     0.16100
C1532       C  0.79027939  0.48508261  0.32946740     0.25500
C1533       C  0.77382751  0.49405596  0.35480521    -0.40900
C1534       C  0.76142361  0.52287109  0.35560646     0.32500
C1535       C  0.79897203  0.55816260  0.28788844     0.01200
F1536       F  0.81220330  0.49593733  0.28223079    -0.13200
F1537       F  0.74508887  0.53191024  0.37964321    -0.13700
C1538       C  0.83017403  0.56016941  0.28378125     0.16100
C1539       C  0.84256016  0.58304776  0.26657839     0.25500
C1540       C  0.82429104  0.60528915  0.25386700    -0.40800
C1541       C  0.79309079  0.60301949  0.25750984     0.32400
C1542       C  0.78050425  0.57944398  0.27387868     0.14200
F1543       F  0.84898062  0.54096482  0.29790960    -0.13200
F1544       F  0.77464038  0.62425124  0.24674420    -0.13700
F1545       F  0.87278381  0.58422914  0.26340010    -0.16000
F1546       F  0.75026220  0.57783801  0.27655089    -0.14500
F1547       F  0.75842472  0.57204203  0.33603864    -0.14500
F1548       F  0.80155601  0.45695255  0.32758087    -0.15900
C1549       C  0.92966964  0.58690488  0.15160632     0.14100
C1550       C  0.92069477  0.55738336  0.15698395     0.01100
C1551       C  0.89285004  0.55238899  0.17099828     0.16100
C1552       C  0.87596653  0.57639091  0.18238081     0.25500
C1553       C  0.88651597  0.60577816  0.17963504    -0.40900
C1554       C  0.91273349  0.61081790  0.16271397     0.32500
C1555       C  0.94289629  0.53267447  0.15354177     0.01200
F1556       F  0.88316257  0.52408869  0.17568948    -0.13200
F1557       F  0.92365434  0.63889874  0.15963112    -0.13700
C1558       C  0.95313516  0.51788018  0.17924904     0.16100
C1559       C  0.97687976  0.49756238  0.17762260     0.25500
C1560       C  0.99130374  0.49133109  0.15008757    -0.40800
C1561       C  0.98025883  0.50535697  0.12404178     0.32400
C1562       C  0.95642687  0.52598536  0.12582259     0.14200
F1563       F  0.94107235  0.52425790  0.20646607    -0.13200
F1564       F  0.99304977  0.49990774  0.09699239    -0.13700
F1565       F  0.98591622  0.48433310  0.20341712    -0.16000
F1566       F  0.94685335  0.53980254  0.10055647    -0.14500
F1567       F  0.95652846  0.59257562  0.13852843    -0.14500
F1568       F  0.85086951  0.57058379  0.19847398    -0.15900
C1569       C  0.75417305  0.35624250  0.32055568     0.14100
C1570       C  0.76911506  0.32922318  0.32626289     0.01100
C1571       C  0.77820351  0.32252825  0.35560549     0.16100
C1572       C  0.77524284  0.34378908  0.37829530     0.25500
C1573       C  0.76264310  0.37178671  0.37202769    -0.40900
C1574       C  0.75080039  0.37741041  0.34345356     0.32500
C1575       C  0.78088968  0.31084223  0.30140758     0.01200
F1576       F  0.79209893  0.29621586  0.36163842    -0.13200
F1577       F  0.73862046  0.40445542  0.33703350    -0.13700
C1578       C  0.81177382  0.31069789  0.29632822     0.16100
C1579       C  0.82446079  0.29102674  0.27581479     0.25500
C1580       C  0.80654190  0.27126052  0.25882616    -0.40800
C1581       C  0.77498359  0.27319142  0.26254677     0.32400
C1582       C  0.76244229  0.29257863  0.28395695     0.14200
F1583       F  0.82990014  0.32933910  0.31195371    -0.13200
F1584       F  0.75582098  0.25639597  0.24642847    -0.13700
F1585       F  0.85477454  0.29085261  0.27315230    -0.16000
F1586       F  0.73234534  0.29284201  0.28827943    -0.14500
F1587       F  0.74531245  0.36317531  0.29235475    -0.14500
F1588       F  0.78606806  0.33766245  0.40599971    -0.15900
C1589       C  0.89642907  0.16263403  0.30368668     0.14100
C1590       C  0.92567189  0.15868359  0.29285690     0.01100
C1591       C  0.93173212  0.16529888  0.26270920     0.16100
C1592       C  0.90992422  0.17900662  0.24478798     0.25500
C1593       C  0.88183724  0.18713201  0.25709304    -0.40900
C1594       C  0.87468034  0.17632080  0.28593708     0.32500
C1595       C  0.95029419  0.15256308  0.31431421     0.01200
F1596       F  0.95926072  0.15967549  0.25099931    -0.13200
F1597       F  0.84678946  0.17975016  0.29756149    -0.13700
C1598       C  0.94952477  0.12767916  0.33349536     0.16100
C1599       C  0.96950181  0.12547828  0.35762776     0.25500
C1600       C  0.99052247  0.14821316  0.36298155    -0.40800
C1601       C  0.99231258  0.17219070  0.34265982     0.32400
C1602       C  0.97245390  0.17431602  0.31864971     0.14200
F1603       F  0.92876630  0.10602224  0.32939702    -0.13200
F1604       F  0.01306338  0.19398824  0.34625025    -0.13700
F1605       F  0.96716631  0.10198470  0.37663503    -0.16000
F1606       F  0.97371149  0.19872477  0.30068378    -0.14500
F1607       F  0.88948196  0.15554248  0.33241038    -0.14500
F1608       F  0.91716033  0.18517778  0.21598435    -0.15900
C1609       C  0.97334151  0.32685324  0.13899709     0.14100
C1610       C  0.96137040  0.32047312  0.16738514     0.01100
C1611       C  0.97059869  0.33765297  0.19203829     0.16100
C1612       C  0.99156531  0.36046681  0.18855360     0.25500
C1613       C  0.00381711  0.36694942  0.16016557    -0.40900
C1614       C  0.99425536  0.34988029  0.13535874     0.32500
C1615       C  0.93825113  0.29697706  0.17154251     0.01200
F1616       F  0.95854908  0.33297267  0.21957250    -0.13200
F1617       F  0.00504178  0.35536060  0.10747338    -0.13700
C1618       C  0.94186755  0.27516186  0.19385476     0.16100
C1619       C  0.91783285  0.25711683  0.20239161     0.25500
C1620       C  0.89010773  0.25924039  0.18767979    -0.40800
C1621       C  0.88690718  0.28021234  0.16452698     0.32400
C1622       C  0.91076987  0.29874838  0.15632393     0.14200
F1623       F  0.96809808  0.27287695  0.20901305    -0.13200
F1624       F  0.85962736  0.28505791  0.15226172    -0.13700
F1625       F  0.92057866  0.24082998  0.22773222    -0.16000
F1626       F  0.90608610  0.32030611  0.13550562    -0.14500
F1627       F  0.96494373  0.31061591  0.11477283    -0.14500
F1628       F  0.99924563  0.37659950  0.21309160    -0.15900
C1629       C  0.91860368  0.30777411  0.71558446     0.14100
C1630       C  0.94736652  0.29634195  0.71000159     0.01100
C1631       C  0.95025371  0.26715541  0.69872101     0.16100
C1632       C  0.92484654  0.25121116  0.68962450     0.25500
C1633       C  0.89643273  0.26494047  0.69034070    -0.40900
C1634       C  0.89334903  0.29213714  0.70602435     0.32500
C1635       C  0.97347942  0.31673639  0.71109911     0.01200
F1636       F  0.97781711  0.25491636  0.69471915    -0.13200
F1637       F  0.86591027  0.30467242  0.71010648    -0.13700
C1638       C  0.98169930  0.33117838  0.73773354     0.16100
C1639       C  0.00297893  0.35416358  0.73735772     0.25500
C1640       C  0.01638379  0.36328427  0.71018291    -0.40800
C1641       C  0.00891841  0.34770538  0.68374699     0.32400
C1642       C  0.98771630  0.32482056  0.68425648     0.14200
F1643       F  0.96846731  0.32354786  0.76401091    -0.13200
F1644       F  0.02134922  0.35511644  0.65701042    -0.13700
F1645       F  0.00953038  0.36812950  0.76349656    -0.16000
F1646       F  0.97972710  0.31172461  0.65804385    -0.14500
F1647       F  0.91503408  0.33545788  0.72748607    -0.14500
F1648       F  0.92851594  0.22334488  0.67839409    -0.15900
C1649       C  0.79537516  0.29804330  0.56314975     0.14100
C1650       C  0.79192955  0.32772910  0.57253275     0.01100
C1651       C  0.79830937  0.33513332  0.60235853     0.16100
C1652       C  0.81082031  0.31389908  0.62161357     0.25500
C1653       C  0.81768336  0.28481116  0.61118813    -0.40900
C1654       C  0.80704417  0.27662983  0.58254327     0.32500
C1655       C  0.78451899  0.35112066  0.55033653     0.01200
F1656       F  0.79298752  0.36317644  0.61267030    -0.13200
F1657       F  0.80862403  0.24801113  0.57269643    -0.13700
C1658       C  0.75914279  0.34852546  0.53193173     0.16100
C1659       C  0.75516655  0.36777294  0.50756757     0.25500
C1660       C  0.77652668  0.38986651  0.50130739    -0.40800
C1661       C  0.80096931  0.39352871  0.52079991     0.32400
C1662       C  0.80493832  0.37432744  0.54505532     0.14200
F1663       F  0.73877681  0.32666217  0.53697616    -0.13200
F1664       F  0.82143226  0.41539151  0.51601474    -0.13700
F1665       F  0.73148527  0.36360710  0.48907308    -0.16000
F1666       F  0.82976263  0.37730044  0.56229697    -0.14500
F1667       F  0.78909130  0.29002530  0.53453171    -0.14500
F1668       F  0.81581933  0.32204915  0.65037971    -0.15900
C1669       C  0.93543713  0.16786315  0.51586800     0.14100
C1670       C  0.94262574  0.15665164  0.54434010     0.01100
C1671       C  0.96853381  0.13917524  0.54788311     0.16100
C1672       C  0.98764933  0.13399944  0.52347698     0.25500
C1673       C  0.98139679  0.14687187  0.49547648    -0.40900
C1674       C  0.95488829  0.16334964  0.49171407     0.32500
C1675       C  0.92578851  0.16765058  0.57068369     0.01200
F1676       F  0.97610799  0.12859242  0.57531282    -0.13200
F1677       F  0.94852062  0.17615829  0.46492771    -0.13700
C1678       C  0.89557877  0.16013899  0.57487257     0.16100
C1679       C  0.87809130  0.17590903  0.59563595     0.25500
C1680       C  0.89053368  0.19922905  0.61249587    -0.40800
C1681       C  0.92089625  0.20621485  0.60872074     0.32400
C1682       C  0.93855060  0.19009192  0.58848180     0.14200
F1683       F  0.88262283  0.13903009  0.55740748    -0.13200
F1684       F  0.93259207  0.23085134  0.62180617    -0.13700
F1685       F  0.84830836  0.17055791  0.59722061    -0.16000
F1686       F  0.96740014  0.19846134  0.58398974    -0.14500
F1687       F  0.91072292  0.18515830  0.51202769    -0.14500
F1688       F  0.01353571  0.11865268  0.52779951    -0.15900
C1689       C  0.67237411  0.84771844  0.69818910     0.14100
C1690       C  0.66806636  0.82120800  0.71448613     0.01100
C1691       C  0.64652681  0.82101282  0.73762120     0.16100
C1692       C  0.62849956  0.84636281  0.74301593     0.25500
C1693       C  0.63143870  0.87194489  0.72497063    -0.40900
C1694       C  0.65407639  0.87251142  0.70304899     0.32500
C1695       C  0.68569976  0.79412985  0.70592184     0.01200
F1696       F  0.64181294  0.79587035  0.75385212    -0.13200
F1697       F  0.65807443  0.89702990  0.68564595    -0.13700
C1698       C  0.70444424  0.77934972  0.72647531     0.16100
C1699       C  0.72633691  0.75907901  0.71627105     0.25500
C1700       C  0.73024379  0.75395126  0.68542359    -0.40800
C1701       C  0.70897584  0.76586606  0.66549493     0.32400
C1702       C  0.68676820  0.78539125  0.67567069     0.14200
F1703       F  0.70326344  0.78626198  0.75603463    -0.13200
F1704       F  0.71152739  0.76089517  0.63559957    -0.13700
F1705       F  0.74452574  0.74568428  0.73643784    -0.16000
F1706       F  0.66773327  0.79770315  0.65544726    -0.14500
F1707       F  0.69406385  0.84944481  0.67689181    -0.14500
F1708       F  0.60693595  0.84517444  0.76443065    -0.15900
C1709       C  0.83320876  0.78534817  0.56359624     0.14100
C1710       C  0.83796397  0.81457967  0.57339660     0.01100
C1711       C  0.83380431  0.82164081  0.60370485     0.16100
C1712       C  0.82194204  0.80046348  0.62337715     0.25500
C1713       C  0.81300484  0.77218416  0.61264041    -0.40900
C1714       C  0.82171987  0.76408177  0.58319658     0.32500
C1715       C  0.84211222  0.83839173  0.55114859     0.01200
F1716       F  0.84010554  0.84946842  0.61389798    -0.13200
F1717       F  0.81852743  0.73578711  0.57284755    -0.13700
C1718       C  0.81795984  0.85743099  0.54520534     0.16100
C1719       C  0.81964405  0.87807652  0.52206277     0.25500
C1720       C  0.84562724  0.88006835  0.50414807    -0.40800
C1721       C  0.87022927  0.86142486  0.51065203     0.32400
C1722       C  0.86834743  0.84050677  0.53391885     0.14200
F1723       F  0.79214570  0.85519660  0.56119051    -0.13200
F1724       F  0.89563804  0.86274879  0.49399165    -0.13700
F1725       F  0.79565930  0.89616773  0.51733236    -0.16000
F1726       F  0.89185252  0.82204466  0.53939544    -0.14500
F1727       F  0.83774240  0.77790071  0.53445319    -0.14500
F1728       F  0.81919971  0.80782272  0.65272570    -0.15900
C1729       C  0.65314196  0.68739645  0.54460326     0.14100
C1730       C  0.67071258  0.66287943  0.55351288     0.01100
C1731       C  0.66886199  0.63619425  0.53706453     0.16100
C1732       C  0.65029090  0.63421759  0.51186631     0.25500
C1733       C  0.63328853  0.65904607  0.50231757    -0.40900
C1734       C  0.63478913  0.68560055  0.51925935     0.32500
C1735       C  0.69376916  0.66680703  0.57720377     0.01200
F1736       F  0.68556741  0.61214990  0.54506232    -0.13200
F1737       F  0.61861293  0.71003186  0.51131087    -0.13700
C1738       C  0.68605015  0.67675688  0.60617325     0.16100
C1739       C  0.70822877  0.68728738  0.62578595     0.25500
C1740       C  0.73824162  0.68857893  0.61633198    -0.40800
C1741       C  0.74611144  0.67549181  0.58876024     0.32400
C1742       C  0.72417650  0.66465359  0.56944012     0.14200
F1743       F  0.65689893  0.67788027  0.61476402    -0.13200
F1744       F  0.77505276  0.67536422  0.57953249    -0.13700
F1745       F  0.69995717  0.69862879  0.65272786    -0.16000
F1746       F  0.73253329  0.65472619  0.54192729    -0.14500
F1747       F  0.65481314  0.71367344  0.55967911    -0.14500
F1748       F  0.64983335  0.60822044  0.49625137    -0.15900
C1749       C  0.48292593  0.83376160  0.74187643     0.14100
C1750       C  0.46618562  0.83006502  0.71564475     0.01100
C1751       C  0.46834185  0.85128198  0.69269444     0.16100
C1752       C  0.48788219  0.87537971  0.69537335     0.25500
C1753       C  0.50563625  0.87869436  0.72115217    -0.40900
C1754       C  0.50241081  0.85803465  0.74475469     0.32500
C1755       C  0.44826486  0.80296561  0.71067736     0.01200
F1756       F  0.45236951  0.84792303  0.66709314    -0.13200
F1757       F  0.51927681  0.86032735  0.76988801    -0.13700
C1758       C  0.41707534  0.80383763  0.71337278     0.16100
C1759       C  0.39985297  0.78001086  0.70298511     0.25500
C1760       C  0.41346066  0.75550393  0.68816825    -0.40800
C1761       C  0.44509544  0.75310060  0.68957435     0.32400
C1762       C  0.46220894  0.77696136  0.70015119     0.14200
F1763       F  0.40323425  0.82847096  0.72455250    -0.13200
F1764       F  0.45990500  0.72792947  0.68144012    -0.13700
F1765       F  0.36959370  0.78204022  0.70521789    -0.16000
F1766       F  0.49254668  0.77529457  0.69873537    -0.14500
F1767       F  0.48106124  0.81334781  0.76423531    -0.14500
F1768       F  0.48977563  0.89520513  0.67247707    -0.15900
C1769       C  0.44793608  0.65936858  0.58080590     0.14100
C1770       C  0.43824730  0.66786962  0.55227908     0.01100
C1771       C  0.41021562  0.68185779  0.54924673     0.16100
C1772       C  0.39281947  0.68862933  0.57463534     0.25500
C1773       C  0.40325962  0.68170915  0.60357822    -0.40900
C1774       C  0.43096925  0.66644584  0.60610030     0.32500
C1775       C  0.45929916  0.66508916  0.52667235     0.01200
F1776       F  0.40022092  0.68996937  0.52176099    -0.13200
F1777       F  0.44337140  0.66097286  0.63326081    -0.13700
C1778       C  0.46948823  0.63692904  0.51727250     0.16100
C1779       C  0.49311953  0.63439768  0.49670437     0.25500
C1780       C  0.50724173  0.66010884  0.48517009    -0.40800
C1781       C  0.49596612  0.68838513  0.49379944     0.32400
C1782       C  0.47233964  0.69076446  0.51434352     0.14200
F1783       F  0.45694850  0.61180392  0.52864811    -0.13200
F1784       F  0.50831875  0.71394757  0.48320293    -0.13700
F1785       F  0.50243970  0.60667823  0.48860680    -0.16000
F1786       F  0.46325756  0.71827541  0.52346294    -0.14500
F1787       F  0.47528907  0.64655305  0.58445305    -0.14500
F1788       F  0.36641364  0.70304959  0.57080256    -0.15900
C1789       C  0.34071519  0.78548203  0.56356001     0.14100
C1790       C  0.30944118  0.78400975  0.56059685     0.01100
C1791       C  0.29306667  0.76508530  0.57966367     0.16100
C1792       C  0.30788700  0.74844586  0.60180618     0.25500
C1793       C  0.33881092  0.75138671  0.60576191    -0.40900
C1794       C  0.35524749  0.76930952  0.58583956     0.32500
C1795       C  0.29465253  0.80280394  0.53768025     0.01200
F1796       F  0.26291367  0.76283297  0.57686032    -0.13200
F1797       F  0.38553994  0.77101633  0.58787484    -0.13700
C1798       C  0.30275822  0.79944632  0.50747020     0.16100
C1799       C  0.29483665  0.82116916  0.48654063     0.25500
C1800       C  0.27837297  0.84644081  0.49534324    -0.40800
C1801       C  0.26808255  0.84869129  0.52500937     0.32400
C1802       C  0.27630817  0.82700286  0.54615864     0.14200
F1803       F  0.32004201  0.77603322  0.49865540    -0.13200
F1804       F  0.25238496  0.87310014  0.53403085    -0.13700
F1805       F  0.30462102  0.81837075  0.45787891    -0.16000
F1806       F  0.26854569  0.83094887  0.57530159    -0.14500
F1807       F  0.35716767  0.80335702  0.54535124    -0.14500
F1808       F  0.29218270  0.73010602  0.61998263    -0.15900
C1809       C  0.42269588  0.65092747  0.30414201     0.14100
C1810       C  0.45226040  0.64922008  0.29345895     0.01100
C1811       C  0.45750232  0.65343792  0.26271842     0.16100
C1812       C  0.43445089  0.66346401  0.24400977     0.25500
C1813       C  0.40600432  0.67062894  0.25603597    -0.40900
C1814       C  0.39966577  0.66078543  0.28542869     0.32500
C1815       C  0.47762899  0.64698660  0.31485903     0.01200
F1816       F  0.48532535  0.64922733  0.25111756    -0.13200
F1817       F  0.37132927  0.66125994  0.29647070    -0.13700
C1818       C  0.47896049  0.62415816  0.33640277     0.16100
C1819       C  0.50069127  0.62481693  0.35899277     0.25500
C1820       C  0.52160789  0.64831025  0.36042293    -0.40800
C1821       C  0.52076542  0.67059603  0.33827659     0.32400
C1822       C  0.49907456  0.66991466  0.31577522     0.14200
F1823       F  0.45883794  0.60150909  0.33592994    -0.13200
F1824       F  0.54073393  0.69337619  0.33854954    -0.13700
F1825       F  0.50026974  0.60322202  0.38029197    -0.16000
F1826       F  0.49810547  0.69263147  0.29569864    -0.14500
F1827       F  0.41636561  0.64532448  0.33333053    -0.14500
F1828       F  0.44037300  0.66712365  0.21441562    -0.15900
C1829       C  0.39318842  0.81006621  0.17389759     0.14100
C1830       C  0.42192683  0.80684758  0.16147912     0.01100
C1831       C  0.43374315  0.77809825  0.15733689     0.16100
C1832       C  0.41852423  0.75324927  0.16841208     0.25500
C1833       C  0.39127412  0.75669899  0.18410227    -0.40900
C1834       C  0.37782681  0.78517660  0.18489506     0.32500
C1835       C  0.44177196  0.83305125  0.15824247     0.01200
F1836       F  0.46125542  0.77426678  0.14490065    -0.13200
F1837       F  0.35069109  0.78955824  0.19783371    -0.13700
C1838       C  0.45008745  0.84883369  0.18402830     0.16100
C1839       C  0.47234355  0.87054399  0.18273903     0.25500
C1840       C  0.48697666  0.87707343  0.15549448    -0.40800
C1841       C  0.47757326  0.86214557  0.12929843     0.32400
C1842       C  0.45520834  0.84025399  0.13074030     0.14200
F1843       F  0.43778969  0.84200025  0.21099555    -0.13200
F1844       F  0.49076950  0.86774293  0.10249225    -0.13700
F1845       F  0.48002943  0.88453718  0.20856113    -0.16000
F1846       F  0.44713706  0.82560138  0.10543050    -0.14500
F1847       F  0.38084280  0.83761956  0.17711008    -0.14500
F1848       F  0.43102862  0.72581879  0.16469106    -0.15900
C1849       C  0.27092213  0.83435778  0.32334694     0.14100
C1850       C  0.29531561  0.81453745  0.32502914     0.01100
C1851       C  0.31340840  0.81455693  0.35062653     0.16100
C1852       C  0.30820123  0.83493303  0.37365930     0.25500
C1853       C  0.28458124  0.85566641  0.37171920    -0.40900
C1854       C  0.26545937  0.85476978  0.34668814     0.32500
C1855       C  0.30372202  0.79480833  0.29979967     0.01200
F1856       F  0.33657471  0.79500943  0.35303647    -0.13200
F1857       F  0.24247862  0.87450410  0.34417936    -0.13700
C1858       C  0.32964787  0.80129646  0.28323323     0.16100
C1859       C  0.34218267  0.77989022  0.26414460     0.25500
C1860       C  0.32819669  0.75213708  0.26012078    -0.40800
C1861       C  0.30202621  0.74585890  0.27631684     0.32400
C1862       C  0.28968853  0.76708444  0.29591468     0.14200
F1863       F  0.34407194  0.82761590  0.28733961    -0.13200
F1864       F  0.28971135  0.71837407  0.27468990    -0.13700
F1865       F  0.36956271  0.78515203  0.25210069    -0.16000
F1866       F  0.26542187  0.75979543  0.31269964    -0.14500
F1867       F  0.25313035  0.83459500  0.29876066    -0.14500
F1868       F  0.32634639  0.83434904  0.39799420    -0.15900
C1869       C  0.86428424  0.86429357  0.32400990     0.14100
C1870       C  0.84596365  0.83886756  0.32590474     0.01100
C1871       C  0.82990488  0.83363471  0.35253768     0.16100
C1872       C  0.83084075  0.85425603  0.37610893     0.25500
C1873       C  0.84817318  0.88028832  0.37369726    -0.40900
C1874       C  0.86543166  0.88479464  0.34773618     0.32500
C1875       C  0.84066890  0.81966049  0.29923960     0.01200
F1876       F  0.81209067  0.80926563  0.35516605    -0.13200
F1877       F  0.88209362  0.90989429  0.34466440    -0.13700
C1878       C  0.84520563  0.78867445  0.30043160     0.16100
C1879       C  0.83449841  0.77028513  0.27747603     0.25500
C1880       C  0.81796466  0.78228423  0.25331648    -0.40800
C1881       C  0.81779608  0.81373047  0.25009302     0.32400
C1882       C  0.82835378  0.83206778  0.27315132     0.14200
F1883       F  0.85885836  0.77607988  0.32444747    -0.13200
F1884       F  0.80810447  0.82728096  0.22482576    -0.13700
F1885       F  0.83828938  0.74034692  0.27998896    -0.16000
F1886       F  0.82486761  0.86207728  0.27067042    -0.14500
F1887       F  0.88052430  0.86960184  0.29885809    -0.14500
F1888       F  0.81460289  0.84890457  0.40126698    -0.15900
C1889       C  0.73958124  0.66499585  0.29889175     0.14100
C1890       C  0.70833781  0.66879438  0.29911779     0.01100
C1891       C  0.69503187  0.68696866  0.27721511     0.16100
C1892       C  0.71277133  0.70264833  0.25671282     0.25500
C1893       C  0.74403053  0.69915553  0.25661339    -0.40900
C1894       C  0.75724481  0.67997666  0.27775603     0.32500
C1895       C  0.69016360  0.65894685  0.32515820     0.01200
F1896       F  0.66502776  0.69193050  0.27765679    -0.13200
F1897       F  0.78751961  0.67742757  0.27920084    -0.13700
C1898       C  0.69363354  0.67367412  0.35270336     0.16100
C1899       C  0.67295537  0.66938124  0.37584471     0.25500
C1900       C  0.64865437  0.64988925  0.37212977    -0.40800
C1901       C  0.64644097  0.63333818  0.34541027     0.32400
C1902       C  0.66687151  0.63813821  0.32190422     0.14200
F1903       F  0.71586156  0.69393844  0.35641584    -0.13200
F1904       F  0.62321479  0.61434030  0.34118083    -0.13700
F1905       F  0.67597096  0.68523343  0.40157333    -0.16000
F1906       F  0.66316290  0.62354769  0.29552757    -0.14500
F1907       F  0.75308431  0.64816263  0.32022551    -0.14500
F1908       F  0.69966307  0.72403227  0.23981094    -0.15900
C1909       C  0.71434052  0.80734095  0.15071907     0.14100
C1910       C  0.68551551  0.79583742  0.15536714     0.01100
C1911       C  0.68259627  0.76638605  0.16582274     0.16100
C1912       C  0.70788869  0.75015761  0.17495597     0.25500
C1913       C  0.73619819  0.76388133  0.17545989    -0.40900
C1914       C  0.73946064  0.79133722  0.16025517     0.32500
C1915       C  0.65907268  0.81593868  0.15319667     0.01200
F1916       F  0.65507022  0.75395355  0.16869100    -0.13200
F1917       F  0.76693823  0.80363003  0.15631688    -0.13700
C1918       C  0.65244571  0.83129523  0.12660257     0.16100
C1919       C  0.63025155  0.85355766  0.12618788     0.25500
C1920       C  0.61433099  0.86104008  0.15252070    -0.40800
C1921       C  0.62024026  0.84454949  0.17878603     0.32400
C1922       C  0.64232527  0.82236772  0.17907672     0.14200
F1923       F  0.66798967  0.82517079  0.10116371    -0.13200
F1924       F  0.60518709  0.85026830  0.20461725    -0.13700
F1925       F  0.62529268  0.86851544  0.10025703    -0.16000
F1926       F  0.64849391  0.80825635  0.20525214    -0.14500
F1927       F  0.71809853  0.83527137  0.13957819    -0.14500
F1928       F  0.70421963  0.72167953  0.18427592    -0.15900
C1929       C  0.48824107  0.20808100  0.31400134     0.14100
C1930       C  0.45757889  0.21081499  0.32061389     0.01100
C1931       C  0.44862320  0.22128368  0.34893304     0.16100
C1932       C  0.47005531  0.22786354  0.37073415     0.25500
C1933       C  0.50060837  0.22376719  0.36450164    -0.40900
C1934       C  0.50961641  0.21432257  0.33591033     0.32500
C1935       C  0.43505717  0.19838414  0.29998091     0.01200
F1936       F  0.41911374  0.22287775  0.35617839    -0.13200
F1937       F  0.53909301  0.21017759  0.32961558    -0.13700
C1938       C  0.43493062  0.16750200  0.29464898     0.16100
C1939       C  0.41185571  0.15459066  0.27829844     0.25500
C1940       C  0.38858674  0.17235500  0.26683196    -0.40800
C1941       C  0.38901490  0.20324429  0.27137758     0.32400
C1942       C  0.41216437  0.21631523  0.28790476     0.14200
F1943       F  0.45638787  0.14962236  0.30662016    -0.13200
F1944       F  0.36613540  0.22030302  0.26127927    -0.13700
F1945       F  0.41179639  0.12453906  0.27424427    -0.16000
F1946       F  0.41190354  0.24622489  0.29275717    -0.14500
F1947       F  0.49734949  0.19803018  0.28676834    -0.14500
F1948       F  0.46093279  0.23605411  0.39857819    -0.15900
C1949       C  0.27231386  0.00149879  0.32842121     0.14100
C1950       C  0.28878066  0.02733936  0.33506108     0.01100
C1951       C  0.29933894  0.03165956  0.36439351     0.16100
C1952       C  0.29469726  0.00989450  0.38634737     0.25500
C1953       C  0.27904428  0.98362951  0.37948145    -0.40900
C1954       C  0.26729304  0.97986680  0.35056039     0.32500
C1955       C  0.29788825  0.04821620  0.31094407     0.01200
F1956       F  0.31499001  0.05661255  0.37148541    -0.13200
F1957       F  0.25282422  0.95429896  0.34320915    -0.13700
C1958       C  0.27700523  0.06634664  0.29602727     0.16100
C1959       C  0.28647914  0.08752563  0.27477912     0.25500
C1960       C  0.31723701  0.09040487  0.26743270    -0.40800
C1961       C  0.33779915  0.07149889  0.28255990     0.32400
C1962       C  0.32823783  0.05079885  0.30373411     0.14200
F1963       F  0.24751822  0.06463343  0.30321985    -0.13200
F1964       F  0.36776592  0.07399654  0.27797242    -0.13700
F1965       F  0.26556145  0.10628923  0.26355411    -0.16000
F1966       F  0.34892585  0.03353357  0.31779504    -0.14500
F1967       F  0.26276482  0.99637123  0.30006317    -0.14500
F1968       F  0.30592842  0.01420742  0.41423959    -0.15900
C1969       C  0.41510522  0.07261185  0.16134963     0.14100
C1970       C  0.44428866  0.08016760  0.17009293     0.01100
C1971       C  0.44870801  0.10683231  0.18625918     0.16100
C1972       C  0.42405785  0.12392979  0.19601226     0.25500
C1973       C  0.39470781  0.11415738  0.19034029    -0.40900
C1974       C  0.39064601  0.08935226  0.17138206     0.32500
C1975       C  0.46865339  0.05763468  0.16640902     0.01200
F1976       F  0.47675057  0.11522572  0.19426083    -0.13200
F1977       F  0.36268437  0.07933866  0.16522732    -0.13700
C1978       C  0.47534569  0.04538523  0.13816640     0.16100
C1979       C  0.49384324  0.02010737  0.13555867     0.25500
C1980       C  0.50604828  0.00637925  0.16125165    -0.40800
C1981       C  0.50027401  0.01962662  0.18942054     0.32400
C1982       C  0.48194410  0.04492408  0.19188986     0.14200
F1983       F  0.46323815  0.05747914  0.11309083    -0.13200
F1984       F  0.51170743  0.00777994  0.21493183    -0.13700
F1985       F  0.49899573  0.00866863  0.10787161    -0.16000
F1986       F  0.47577061  0.05595415  0.21955829    -0.14500
F1987       F  0.40992714  0.04704282  0.14588500    -0.14500
F1988       F  0.42892560  0.14827218  0.21335731    -0.15900
C1989       C  0.42445442  0.08282337  0.71479037     0.14100
C1990       C  0.45045290  0.07972749  0.69727719     0.01100
C1991       C  0.45233797  0.09531960  0.67000802     0.16100
C1992       C  0.42783826  0.11175597  0.65938567     0.25500
C1993       C  0.40116786  0.11350087  0.67611147    -0.40900
C1994       C  0.39985724  0.09906779  0.70396594     0.32500
C1995       C  0.47229902  0.05548448  0.70395281     0.01200
F1996       F  0.47694833  0.09231109  0.65233422    -0.13200
F1997       F  0.37352434  0.09773508  0.71890048    -0.13700
C1998       C  0.47405893  0.03098234  0.68441371     0.16100
C1999       C  0.49347281  0.00725991  0.69025144     0.25500
C2000       C  0.51194991  0.00735269  0.71577292    -0.40800
C2001       C  0.50995316  0.03168799  0.73573707     0.32400
C2002       C  0.49017600  0.05557122  0.72987899     0.14200
F2003       F  0.45641329  0.02974508  0.65972695    -0.13200
F2004       F  0.52781015  0.03287500  0.76024211    -0.13700
F2005       F  0.49381736  0.98381183  0.67095491    -0.16000
F2006       F  0.48893258  0.07903166  0.74909337    -0.14500
F2007       F  0.42165223  0.06740475  0.74078275    -0.14500
F2008       F  0.42884332  0.12244219  0.63101037    -0.15900
C2009       C  0.45919195  0.23767225  0.53030527     0.14100
C2010       C  0.45095998  0.20855974  0.53836193     0.01100
C2011       C  0.46472830  0.18431790  0.52402285     0.16100
C2012       C  0.48638006  0.18886356  0.50189839     0.25500
C2013       C  0.49476256  0.21802888  0.49321913    -0.40900
C2014       C  0.48086210  0.24244034  0.50788215     0.32500
C2015       C  0.42718790  0.20259098  0.56074202     0.01200
F2016       F  0.45699249  0.15597071  0.53144014    -0.13200
F2017       F  0.48818455  0.27092032  0.50068254    -0.13700
C2018       C  0.39807770  0.19649227  0.55098948     0.16100
C2019       C  0.37725750  0.18356020  0.57041749     0.25500
C2020       C  0.38529084  0.17583119  0.60001403    -0.40800
C2021       C  0.41351443  0.18525384  0.61062699     0.32400
C2022       C  0.43437254  0.19816940  0.59098501     0.14200
F2023       F  0.39034646  0.20147206  0.52204657    -0.13200
F2024       F  0.42194843  0.18043663  0.63934608    -0.13700
F2025       F  0.34920108  0.17833564  0.56005323    -0.16000
F2026       F  0.46227797  0.20459443  0.60102538    -0.14500
F2027       F  0.44611724  0.26142245  0.54403404    -0.14500
F2028       F  0.49904278  0.16440029  0.48906377    -0.15900
C2029       C  0.32560121  0.04128604  0.57655965     0.14100
C2030       C  0.29461794  0.03812516  0.57338175     0.01100
C2031       C  0.27546518  0.05858800  0.58743444     0.16100
C2032       C  0.28706561  0.08246380  0.60398086     0.25500
C2033       C  0.31849297  0.08575174  0.60777594    -0.40900
C2034       C  0.33739644  0.06479225  0.59324072     0.32500
C2035       C  0.28291402  0.01561139  0.55229365     0.01200
F2036       F  0.24535715  0.05597388  0.58430180    -0.13200
F2037       F  0.36765278  0.06759817  0.59430106    -0.13700
C2038       C  0.28648270  0.98503222  0.55821816     0.16100
C2039       C  0.28134622  0.96401096  0.53563908     0.25500
C2040       C  0.27226196  0.97333320  0.50705601    -0.40800
C2041       C  0.26676962  0.00370838  0.50171938     0.32400
C2042       C  0.27213133  0.02476435  0.52421953     0.14200
F2043       F  0.29634375  0.97573308  0.58538758    -0.13200
F2044       F  0.25858575  0.01315603  0.47404697    -0.13700
F2045       F  0.28658472  0.93466473  0.54117779    -0.16000
F2046       F  0.26910448  0.05425636  0.51789842    -0.14500
F2047       F  0.34459172  0.02228015  0.56224649    -0.14500
F2048       F  0.26712553  0.10305816  0.61380892    -0.15900
C2049       C  0.83937512  0.07815248  0.28774889     0.14100
C2050       C  0.83095235  0.08311430  0.31769089     0.01100
C2051       C  0.81386182  0.10867198  0.32466077     0.16100
C2052       C  0.80232240  0.12671259  0.30186490     0.25500
C2053       C  0.80889840  0.12050172  0.27176778    -0.40900
C2054       C  0.82840944  0.09664416  0.26506232     0.32500
C2055       C  0.83511368  0.05913945  0.34038995     0.01200
F2056       F  0.80589517  0.11452639  0.35343446    -0.13200
F2057       F  0.83346992  0.08876283  0.23612167    -0.13700
C2058       C  0.86322194  0.04579143  0.34540917     0.16100
C2059       C  0.86606349  0.02153603  0.36509544     0.25500
C2060       C  0.84083330  0.01031932  0.38038761    -0.40800
C2061       C  0.81286574  0.02426759  0.37573219     0.32400
C2062       C  0.81000839  0.04793981  0.35571429     0.14200
F2063       F  0.88794696  0.05615581  0.33115955    -0.13200
F2064       F  0.78793547  0.01511040  0.39052907    -0.13700
F2065       F  0.89342565  0.00880543  0.36872685    -0.16000
F2066       F  0.78223251  0.05920265  0.35052925    -0.14500
F2067       F  0.85524238  0.05343053  0.27996248    -0.14500
F2068       F  0.78135458  0.14733098  0.30911520    -0.15900
C2069       C  0.67788726  0.21206706  0.35770767     0.14100
C2070       C  0.67789753  0.22950057  0.33150314     0.01100
C2071       C  0.65519458  0.25127171  0.32810141     0.16100
C2072       C  0.63169091  0.25364952  0.34905084     0.25500
C2073       C  0.63064695  0.23455178  0.37398444    -0.40900
C2074       C  0.65467101  0.21467903  0.37867712     0.32500
C2075       C  0.69854566  0.22152081  0.30617657     0.01200
F2076       F  0.65514293  0.26948041  0.30383664    -0.13200
F2077       F  0.65521508  0.19696869  0.40332228    -0.13700
C2078       C  0.68649946  0.21449972  0.27804920     0.16100
C2079       C  0.70400461  0.20059456  0.25613864     0.25500
C2080       C  0.73405381  0.19230129  0.26178714    -0.40800
C2081       C  0.74729446  0.20347670  0.28820956     0.32400
C2082       C  0.72957424  0.21735789  0.31041625     0.14200
F2083       F  0.65694227  0.21873385  0.27240388    -0.13200
F2084       F  0.77709030  0.20085338  0.29307084    -0.13700
F2085       F  0.69075888  0.19408969  0.22967289    -0.16000
F2086       F  0.74261343  0.22598328  0.33642957    -0.14500
F2087       F  0.69919746  0.19085706  0.36210654    -0.14500
F2088       F  0.60901188  0.27319063  0.34387701    -0.15900
C2089       C  0.68447459  0.08276434  0.17335842     0.14100
C2090       C  0.69665282  0.05415951  0.16954878     0.01100
C2091       C  0.72727204  0.04959924  0.17453931     0.16100
C2092       C  0.74489068  0.07272637  0.18586759     0.25500
C2093       C  0.73180612  0.10048255  0.19378170    -0.40900
C2094       C  0.70199598  0.10592656  0.18461365     0.32500
C2095       C  0.67651365  0.02876614  0.16384391     0.01200
F2096       F  0.73989810  0.02250822  0.16916529    -0.13200
F2097       F  0.68969434  0.13361897  0.18576732    -0.13700
C2098       C  0.65999029  0.02689985  0.13723874     0.16100
C2099       C  0.63715544  0.00573693  0.13434223     0.25500
C2100       C  0.63023993  0.98644133  0.15830758    -0.40800
C2101       C  0.64789411  0.98764109  0.18441713     0.32400
C2102       C  0.67091954  0.00843085  0.18699563     0.14200
F2103       F  0.66539354  0.04621902  0.11447603    -0.13200
F2104       F  0.64249198  0.96919568  0.20790734    -0.13700
F2105       F  0.62090283  0.00525058  0.10871300    -0.16000
F2106       F  0.68669212  0.00986332  0.21290962    -0.14500
F2107       F  0.65509375  0.08793213  0.16751833    -0.14500
F2108       F  0.77468026  0.06774724  0.18940916    -0.15900
C2109       C  0.86069726  0.04598885  0.53310535     0.14100
C2110       C  0.83501658  0.04662825  0.55134394     0.01100
C2111       C  0.81329608  0.02432573  0.54791900     0.16100
C2112       C  0.81641090  0.00250083  0.52579861     0.25500
C2113       C  0.84147900  0.00236178  0.50661133    -0.40900
C2114       C  0.86409336  0.02381520  0.51110603     0.32500
C2115       C  0.82858298  0.07207388  0.57159635     0.01200
F2116       F  0.78815270  0.02461034  0.56507475    -0.13200
F2117       F  0.88881338  0.02420305  0.49337147    -0.13700
C2118       C  0.82200354  0.10011064  0.55935196     0.16100
C2119       C  0.80884475  0.12238045  0.57696833     0.25500
C2120       C  0.80175571  0.11704886  0.60736231    -0.40800
C2121       C  0.81031908  0.08946750  0.61999392     0.32400
C2122       C  0.82380205  0.06733830  0.60229061     0.14200
F2123       F  0.82638153  0.10526524  0.52971491    -0.13200
F2124       F  0.80333968  0.08260679  0.64870699    -0.13700
F2125       F  0.80236368  0.14893862  0.56384508    -0.16000
F2126       F  0.83059458  0.04052498  0.61471891    -0.14500
F2127       F  0.88208746  0.06723444  0.53614992    -0.14500
F2128       F  0.79461640  0.98163015  0.52302370    -0.15900
C2129       C  0.69097049  0.00776546  0.70922855     0.14100
C2130       C  0.68643931  0.03814474  0.71572720     0.01100
C2131       C  0.65905380  0.04735359  0.72856837     0.16100
C2132       C  0.63620403  0.02663756  0.73352653     0.25500
C2133       C  0.64013828  0.99682348  0.72478551    -0.40900
C2134       C  0.66778910  0.98736362  0.71323623     0.32500
C2135       C  0.70868143  0.06048584  0.70577701     0.01200
F2136       F  0.65360380  0.07665394  0.73426425    -0.13200
F2137       F  0.67203687  0.95844722  0.70514226    -0.13700
C2138       C  0.71740795  0.06134882  0.67552515     0.16100
C2139       C  0.73508237  0.08459847  0.66484938     0.25500
C2140       C  0.74403124  0.10777132  0.68401315    -0.40800
C2141       C  0.73639730  0.10621211  0.71453121     0.32400
C2142       C  0.71918392  0.08256833  0.72541122     0.14200
F2143       F  0.70656381  0.04117731  0.65563815    -0.13200
F2144       F  0.74390303  0.12829372  0.73362873    -0.13700
F2145       F  0.74059394  0.08623513  0.63499733    -0.16000
F2146       F  0.71156104  0.08203329  0.75485252    -0.14500
F2147       F  0.71750411  0.99809852  0.69785654    -0.14500
F2148       F  0.60953597  0.03604913  0.74481454    -0.15900
C2149       C  0.66578080  0.20912815  0.51866747     0.14100
C2150       C  0.66078454  0.22485658  0.54541499     0.01100
C2151       C  0.63610207  0.24429891  0.54765103     0.16100
C2152       C  0.61629916  0.24742027  0.52353541     0.25500
C2153       C  0.62066980  0.23053057  0.49732993    -0.40900
C2154       C  0.64581730  0.21180370  0.49492438     0.32500
C2155       C  0.67987259  0.21820962  0.57152783     0.01200
F2156       F  0.63077137  0.25950018  0.57342720    -0.13200
F2157       F  0.65074456  0.19559605  0.46967399    -0.13700
C2158       C  0.71063908  0.22386779  0.57044953     0.16100
C2159       C  0.72972888  0.21140400  0.59181078     0.25500
C2160       C  0.71861559  0.19259028  0.61471085    -0.40800
C2161       C  0.68703098  0.18971595  0.61725913     0.32400
C2162       C  0.66811601  0.20203423  0.59559385     0.14200
F2163       F  0.72241170  0.24000439  0.54758010    -0.13200
F2164       F  0.67364406  0.17457830  0.63971724    -0.13700
F2165       F  0.75959385  0.21589291  0.58873056    -0.16000
F2166       F  0.63830829  0.19623420  0.59694255    -0.14500
F2167       F  0.68917499  0.18985082  0.51614940    -0.14500
F2168       F  0.59197734  0.26545865  0.52643723    -0.15900
C2169       C  0.46981215  0.73188018  0.84350089     0.14100
C2170       C  0.45478421  0.70428816  0.84448855     0.01100
C2171       C  0.46319661  0.68329379  0.86626785     0.16100
C2172       C  0.48656277  0.68919473  0.88595206     0.25500
C2173       C  0.50301921  0.71592318  0.88383278    -0.40900
C2174       C  0.49375085  0.73766115  0.86297704     0.32500
C2175       C  0.43142034  0.69621540  0.82221363     0.01200
F2176       F  0.44960267  0.65626752  0.86777380    -0.13200
F2177       F  0.50814642  0.76422381  0.86091237    -0.13700
C2178       C  0.43733947  0.69788859  0.79138086     0.16100
C2179       C  0.41730043  0.68569097  0.77072380     0.25500
C2180       C  0.39159917  0.66989584  0.78037887    -0.40800
C2181       C  0.38422707  0.67129806  0.81117821     0.32400
C2182       C  0.40397903  0.68418390  0.83170817     0.14200
F2183       F  0.46334448  0.70981449  0.78118776    -0.13200
F2184       F  0.35758516  0.66151374  0.82179251    -0.13700
F2185       F  0.42379776  0.68833804  0.74112741    -0.16000
F2186       F  0.39639243  0.68459563  0.86116411    -0.14500
F2187       F  0.46142980  0.75318945  0.82360204    -0.14500
F2188       F  0.49318636  0.66828912  0.90693492    -0.15900
C2189       C  0.41953630  0.54906259  0.69429747     0.14100
C2190       C  0.43088442  0.55555684  0.66569278     0.01100
C2191       C  0.42329511  0.58268332  0.65208180     0.16100
C2192       C  0.40525332  0.60336668  0.66722443     0.25500
C2193       C  0.39324343  0.59681307  0.69549895    -0.40900
C2194       C  0.40090469  0.56953788  0.70909486     0.32500
C2195       C  0.45448427  0.53641674  0.65252097     0.01200
F2196       F  0.43505183  0.58994874  0.62500445    -0.13200
F2197       F  0.39219932  0.56374783  0.73764267    -0.13700
C2198       C  0.44738897  0.51020005  0.63680023     0.16100
C2199       C  0.47020126  0.49046078  0.62775806     0.25500
C2200       C  0.50018791  0.49666199  0.63480047    -0.40800
C2201       C  0.50719726  0.52367893  0.64911413     0.32400
C2202       C  0.48457837  0.54344059  0.65779910     0.14200
F2203       F  0.41836935  0.50309090  0.63157359    -0.13200
F2204       F  0.53596969  0.53016031  0.65613239    -0.13700
F2205       F  0.46287433  0.46434747  0.61426328    -0.16000
F2206       F  0.49191153  0.56862288  0.67302875    -0.14500
F2207       F  0.42817756  0.52380064  0.70869095    -0.14500
F2208       F  0.40232008  0.63094281  0.65569699    -0.15900
C2209       C  0.28447645  0.56969930  0.79455521     0.14100
C2210       C  0.29192607  0.54073151  0.78494432     0.01100
C2211       C  0.30731729  0.53719857  0.75758691     0.16100
C2212       C  0.31864508  0.56217068  0.74245049     0.25500
C2213       C  0.31421218  0.59094170  0.75423253    -0.40900
C2214       C  0.29521687  0.59445078  0.77910793     0.32500
C2215       C  0.28861955  0.51541012  0.80618457     0.01200
F2216       F  0.31323134  0.50948783  0.74672113    -0.13200
F2217       F  0.29002628  0.62195107  0.79060509    -0.13700
C2218       C  0.26142190  0.51030816  0.82121565     0.16100
C2219       C  0.26028434  0.49107440  0.84591165     0.25500
C2220       C  0.28631507  0.47606103  0.85579056    -0.40800
C2221       C  0.31297173  0.47961255  0.83923260     0.32400
C2222       C  0.31415839  0.49923111  0.81498130     0.14200
F2223       F  0.23611788  0.52479808  0.81260700    -0.13200
F2224       F  0.33836104  0.46478561  0.84691889    -0.13700
F2225       F  0.23387466  0.48813390  0.86070821    -0.16000
F2226       F  0.34095693  0.50384783  0.80136548    -0.14500
F2227       F  0.26988557  0.57424167  0.82087760    -0.14500
F2228       F  0.33546827  0.55796556  0.71750043    -0.15900
C2229       C  0.82088395  0.53356346  0.83526950     0.14100
C2230       C  0.84702790  0.54352100  0.82115947     0.01100
C2231       C  0.87486832  0.53243585  0.83068705     0.16100
C2232       C  0.87646941  0.51204369  0.85456706     0.25500
C2233       C  0.85011535  0.50208511  0.86894131    -0.40900
C2234       C  0.82229798  0.51335720  0.85889256     0.32500
C2235       C  0.84412891  0.56581770  0.79689333     0.01200
F2236       F  0.90044736  0.54149853  0.81708328    -0.13200
F2237       F  0.79610584  0.50509300  0.87191672    -0.13700
C2238       C  0.83318389  0.59443335  0.80362057     0.16100
C2239       C  0.82245686  0.61307550  0.78091880     0.25500
C2240       C  0.82058279  0.60257171  0.75119634    -0.40800
C2241       C  0.83551467  0.57549028  0.74415604     0.32400
C2242       C  0.84716040  0.55730449  0.76685034     0.14200
F2243       F  0.83147284  0.60370649  0.83251640    -0.13200
F2244       F  0.83835371  0.56622337  0.71535454    -0.13700
F2245       F  0.81403125  0.64114589  0.78841922    -0.16000
F2246       F  0.85935895  0.53044556  0.75963187    -0.14500
F2247       F  0.79366056  0.54332644  0.82586268    -0.14500
F2248       F  0.90376606  0.50218908  0.86354790    -0.15900
C2249       C  0.72358376  0.66654617  0.80762921     0.14100
C2250       C  0.70014794  0.68639810  0.80071168     0.01100
C2251       C  0.69714542  0.69640065  0.77104098     0.16100
C2252       C  0.71703179  0.68650177  0.74880388     0.25500
C2253       C  0.74052656  0.66665857  0.75573955    -0.40900
C2254       C  0.74263624  0.65583358  0.78514785     0.32500
C2255       C  0.67702514  0.69382069  0.82363066     0.01200
F2256       F  0.67367951  0.71401458  0.76313127    -0.13200
F2257       F  0.75997433  0.63185647  0.79134989    -0.13700
C2258       C  0.66949248  0.72359862  0.83025101     0.16100
C2259       C  0.64776787  0.73023309  0.85203253     0.25500
C2260       C  0.63310013  0.70715034  0.86776565    -0.40800
C2261       C  0.64043136  0.67730913  0.86057240     0.32400
C2262       C  0.66196650  0.67080666  0.83876568     0.14200
F2263       F  0.68365786  0.74634266  0.81607231    -0.13200
F2264       F  0.62680573  0.65411550  0.87455249    -0.13700
F2265       F  0.64153022  0.75932242  0.85793037    -0.16000
F2266       F  0.66776799  0.64177510  0.83209007    -0.14500
F2267       F  0.72697399  0.65611092  0.83595396    -0.14500
F2268       F  0.71181549  0.69431434  0.71994703    -0.15900
C2269       C  0.64389617  0.54726045  0.64893461     0.14100
C2270       C  0.67166857  0.54248100  0.63486891     0.01100
C2271       C  0.67536684  0.51781618  0.61577445     0.16100
C2272       C  0.65211431  0.49708583  0.61246645     0.25500
C2273       C  0.62537281  0.50057232  0.62884304    -0.40900
C2274       C  0.62119338  0.52620465  0.64642703     0.32500
C2275       C  0.69778309  0.55930819  0.64586196     0.01200
F2276       F  0.70224052  0.51245754  0.60253764    -0.13200
F2277       F  0.59565828  0.53012296  0.66246159    -0.13700
C2278       C  0.70538693  0.55612787  0.67598772     0.16100
C2279       C  0.72672020  0.57440879  0.68881294     0.25500
C2280       C  0.74211204  0.59617287  0.67172251    -0.40800
C2281       C  0.73579509  0.59793604  0.64071203     0.32400
C2282       C  0.71356352  0.57970553  0.62800363     0.14200
F2283       F  0.69095902  0.53599988  0.69356063    -0.13200
F2284       F  0.74972554  0.61776364  0.62271410    -0.13700
F2285       F  0.73107847  0.57184688  0.71880841    -0.16000
F2286       F  0.70650361  0.58291523  0.59866349    -0.14500
F2287       F  0.63977782  0.57110556  0.66731424    -0.14500
F2288       F  0.65675500  0.47227826  0.59559061    -0.15900
C2289       C  0.84262757  0.28052706  0.80689796     0.16500
C2290       C  0.83272166  0.31026400  0.80710581     0.01100
C2291       C  0.81113488  0.31946164  0.78625492     0.16100
C2292       C  0.79900213  0.29907805  0.76594250     0.25500
C2293       C  0.80891489  0.26931341  0.76545574    -0.40900
C2294       C  0.83048354  0.26011203  0.78650417     0.32500
C2295       C  0.83997630  0.33023258  0.83239741     0.01200
F2296       F  0.79981760  0.34760534  0.78747301    -0.13200
F2297       F  0.83734642  0.23072519  0.78935300    -0.13700
C2298       C  0.86520203  0.34885878  0.83179290     0.16100
C2299       C  0.86915299  0.37062188  0.85410338     0.25500
C2300       C  0.84771712  0.37405718  0.87707191    -0.40800
C2301       C  0.82336885  0.35421137  0.87829718     0.32400
C2302       C  0.81959974  0.33253727  0.85620750     0.14200
F2303       F  0.88526953  0.34673414  0.80901798    -0.13200
F2304       F  0.80288628  0.35602727  0.90075210    -0.13700
F2305       F  0.89290969  0.38935712  0.85227285    -0.16000
F2306       F  0.79537665  0.31433439  0.85745111    -0.14500
F2307       F  0.86208376  0.27075437  0.82805924    -0.14500
F2308       F  0.77470174  0.30742199  0.74989591    -0.15900
C2309       C  0.67813330  0.36032016  0.66798197     0.14100
C2310       C  0.68316345  0.33639460  0.64814975     0.01100
C2311       C  0.66462586  0.33393134  0.62267501     0.16100
C2312       C  0.64063612  0.35388516  0.61821413     0.25500
C2313       C  0.63508974  0.37706962  0.63879105    -0.40900
C2314       C  0.65478359  0.38053025  0.66315720     0.32500
C2315       C  0.70512783  0.31247059  0.65645518     0.01200
F2316       F  0.66931373  0.31180865  0.60239878    -0.13200
F2317       F  0.65118049  0.40334866  0.68289857    -0.13700
C2318       C  0.69578864  0.28258195  0.65790316     0.16100
C2319       C  0.71351040  0.26106701  0.67199873     0.25500
C2320       C  0.74049651  0.26896665  0.68641503    -0.40800
C2321       C  0.75148000  0.29803122  0.68194591     0.32400
C2322       C  0.73404348  0.31952590  0.66698559     0.14200
F2323       F  0.66827573  0.27445332  0.64802675    -0.13200
F2324       F  0.77815379  0.30635985  0.69349000    -0.13700
F2325       F  0.70334688  0.23255547  0.67271901    -0.16000
F2326       F  0.74482075  0.34768570  0.66412727    -0.14500
F2327       F  0.69470089  0.36326551  0.69324869    -0.14500
F2328       F  0.62205061  0.34961214  0.59461310    -0.15900
C2329       C  0.68176853  0.16777434  0.77183708     0.14100
C2330       C  0.68725658  0.16455298  0.80262048     0.01100
C2331       C  0.71646100  0.16906126  0.81325494     0.16100
C2332       C  0.73898076  0.17919978  0.79402888     0.25500
C2333       C  0.73221122  0.18756996  0.76430420    -0.40900
C2334       C  0.70405733  0.17881878  0.75277379     0.32500
C2335       C  0.66227562  0.15858248  0.82382969     0.01200
F2336       F  0.72286608  0.16548072  0.84272182    -0.13200
F2337       F  0.69784208  0.18120615  0.72312817    -0.13700
C2338       C  0.66384331  0.13503301  0.84462773     0.16100
C2339       C  0.64115869  0.13118142  0.86603473     0.25500
C2340       C  0.61663200  0.15091984  0.86708274    -0.40800
C2341       C  0.61480901  0.17406349  0.84591182     0.32400
C2342       C  0.63735934  0.17786449  0.82454872     0.14200
F2343       F  0.68752478  0.11596824  0.84443499    -0.13200
F2344       F  0.59115159  0.19319021  0.84597675    -0.13700
F2345       F  0.64389502  0.10905567  0.88659469    -0.16000
F2346       F  0.63542360  0.20124728  0.80532045    -0.14500
F2347       F  0.65445827  0.16108972  0.76038729    -0.14500
F2348       F  0.76728864  0.18108394  0.80480674    -0.15900
C2349       C  0.42566041  0.30594346  0.69057563     0.14100
C2350       C  0.43423917  0.30648402  0.66045215     0.01100
C2351       C  0.42037752  0.28686871  0.64024611     0.16100
C2352       C  0.39883885  0.26633041  0.65029406     0.25500
C2353       C  0.39054995  0.26523999  0.68083619    -0.40900
C2354       C  0.40487765  0.28529680  0.70074259     0.32500
C2355       C  0.45915362  0.32628578  0.65126105     0.01200
F2356       F  0.42884142  0.28649938  0.61104544    -0.13200
F2357       F  0.39976127  0.28414865  0.73072088    -0.13700
C2358       C  0.48677806  0.32430004  0.66622292     0.16100
C2359       C  0.50902474  0.34553027  0.66128221     0.25500
C2360       C  0.50440509  0.36877465  0.64077996    -0.40800
C2361       C  0.47752074  0.36984742  0.62442614     0.32400
C2362       C  0.45489193  0.34885810  0.62984049     0.14200
F2363       F  0.49188288  0.30214654  0.68632315    -0.13200
F2364       F  0.47244113  0.39226318  0.60463615    -0.13700
F2365       F  0.53510470  0.34351254  0.67671876    -0.16000
F2366       F  0.42826644  0.35159005  0.61548878    -0.14500
F2367       F  0.43808608  0.32510980  0.71055885    -0.14500
F2368       F  0.38829869  0.24634265  0.63037335    -0.15900
C2369       C  0.32851558  0.27489567  0.80915441     0.14100
C2370       C  0.29821018  0.28338497  0.81161278     0.01100
C2371       C  0.27798670  0.27339469  0.78961583     0.16100
C2372       C  0.28823191  0.25704205  0.76479766     0.25500
C2373       C  0.31859228  0.24930446  0.76207517    -0.40900
C2374       C  0.33849942  0.25802419  0.78476350     0.32500
C2375       C  0.28888374  0.30536896  0.83503227     0.01200
F2376       F  0.24845812  0.28043193  0.79153705    -0.13200
F2377       F  0.36822004  0.25205088  0.78218064    -0.13700
C2378       C  0.27414515  0.33203871  0.82683481     0.16100
C2379       C  0.26973204  0.35492180  0.84778063     0.25500
C2380       C  0.28080793  0.35203735  0.87695150    -0.40800
C2381       C  0.29442515  0.32511032  0.88563452     0.32400
C2382       C  0.29777508  0.30169586  0.86507117     0.14200
F2383       F  0.26608203  0.33701945  0.79799321    -0.13200
F2384       F  0.30522668  0.32183133  0.91383939    -0.13700
F2385       F  0.25691641  0.38094511  0.83887204    -0.16000
F2386       F  0.31067524  0.27579950  0.87425278    -0.14500
F2387       F  0.34907726  0.28492516  0.82908120    -0.14500
F2388       F  0.26877137  0.25046448  0.74264132    -0.15900
C2389       C  0.43271634  0.15697121  0.76850742     0.14100
C2390       C  0.42423863  0.16000462  0.79860793     0.01100
C2391       C  0.39570728  0.17121811  0.80570878     0.16100
C2392       C  0.37702956  0.18205789  0.78320102     0.25500
C2393       C  0.38688414  0.18217779  0.75328670    -0.40900
C2394       C  0.41410053  0.16790667  0.74595637     0.32500
C2395       C  0.44656641  0.15607979  0.82252061     0.01200
F2396       F  0.38674613  0.17335461  0.83469867    -0.13200
F2397       F  0.42351409  0.16627624  0.71707111    -0.13700
C2398       C  0.45525946  0.18104649  0.83924751     0.16100
C2399       C  0.47660544  0.17833444  0.86169804     0.25500
C2400       C  0.49009805  0.15045012  0.86785073    -0.40800
C2401       C  0.48145254  0.12539558  0.85077628     0.32400
C2402       C  0.45987660  0.12827344  0.82821016     0.14200
F2403       F  0.44345345  0.20840300  0.83335407    -0.13200
F2404       F  0.49406549  0.09822423  0.85553902    -0.13700
F2405       F  0.48395743  0.20328764  0.87729114    -0.16000
F2406       F  0.45184888  0.10395353  0.81199517    -0.14500
F2407       F  0.46009812  0.14592432  0.76112051    -0.14500
F2408       F  0.34995109  0.19343111  0.79097057    -0.15900
C2409       C  0.47132856  0.33004840  0.16767279     0.14100
C2410       C  0.46824392  0.30862667  0.19052653     0.01100
C2411       C  0.48476311  0.31267385  0.21710206     0.16100
C2412       C  0.50410632  0.33729623  0.22047037     0.25500
C2413       C  0.50789299  0.35811062  0.19706976    -0.40900
C2414       C  0.49103551  0.35411634  0.17072031     0.32500
C2415       C  0.44691331  0.28303437  0.18652471     0.01200
F2416       F  0.48265508  0.29246820  0.23962381    -0.13200
F2417       F  0.49292140  0.37406961  0.14793812    -0.13700
C2418       C  0.44745634  0.26586140  0.16004243     0.16100
C2419       C  0.42392120  0.24635365  0.15314468     0.25500
C2420       C  0.39972499  0.24253410  0.17302670    -0.40800
C2421       C  0.40007881  0.25831786  0.20023554     0.32400
C2422       C  0.42347759  0.27809333  0.20710327     0.14200
F2423       F  0.46979739  0.26954146  0.13971871    -0.13200
F2424       F  0.37580206  0.25752605  0.21841119    -0.13700
F2425       F  0.42295134  0.23419692  0.12533217    -0.16000
F2426       F  0.42150301  0.29465391  0.23248732    -0.14500
F2427       F  0.45450779  0.32822057  0.14246199    -0.14500
F2428       F  0.51963535  0.34031006  0.24636654    -0.15900
C2429       C  0.39525173  0.15511696  0.05655478     0.14100
C2430       C  0.42483947  0.15171185  0.06643950     0.01100
C2431       C  0.43140308  0.15705655  0.09668114     0.16100
C2432       C  0.40968921  0.16906316  0.11588045     0.25500
C2433       C  0.38061215  0.17565957  0.10519314    -0.40900
C2434       C  0.37325647  0.16638452  0.07584242     0.32500
C2435       C  0.44938067  0.14741013  0.04439442     0.01200
F2436       F  0.45956993  0.15252623  0.10715290    -0.13200
F2437       F  0.34487131  0.16913399  0.06535481    -0.13700
C2438       C  0.47125019  0.16967969  0.04143361     0.16100
C2439       C  0.49256219  0.16812939  0.01863871     0.25500
C2440       C  0.49252140  0.14429191  0.99805586    -0.40800
C2441       C  0.47135689  0.12130879  0.00167674     0.32400
C2442       C  0.44983080  0.12296485  0.02460350     0.14200
F2443       F  0.47117375  0.19381453  0.05986159    -0.13200
F2444       F  0.47069477  0.09791121  0.98237077    -0.13700
F2445       F  0.51322992  0.19022093  0.01668177    -0.16000
F2446       F  0.42914987  0.10097732  0.02722785    -0.14500
F2447       F  0.38808910  0.14978572  0.02752321    -0.14500
F2448       F  0.41841342  0.17634669  0.14396888    -0.15900
C2449       C  0.25892856  0.33588204  0.03477969     0.14100
C2450       C  0.28479044  0.33271458  0.05224377     0.01100
C2451       C  0.30998590  0.35030131  0.04586444     0.16100
C2452       C  0.30979014  0.36988091  0.02157835     0.25500
C2453       C  0.28429119  0.37227093  0.00323775    -0.40900
C2454       C  0.25859180  0.35557969  0.01054597     0.32500
C2455       C  0.28731393  0.30845891  0.07442002     0.01200
F2456       F  0.33542445  0.34730130  0.06220017    -0.13200
F2457       F  0.23355807  0.35719738  0.99344861    -0.13700
C2458       C  0.28600073  0.27872701  0.06476732     0.16100
C2459       C  0.29577619  0.25580598  0.08343392     0.25500
C2460       C  0.30836950  0.26240771  0.11170552    -0.40800
C2461       C  0.30431882  0.29157125  0.12312601     0.32400
C2462       C  0.29466839  0.31458130  0.10430271     0.14200
F2463       F  0.27748889  0.27202400  0.03638592    -0.13200
F2464       F  0.31072727  0.29810758  0.15208296    -0.13700
F2465       F  0.29363018  0.22734677  0.07323211    -0.16000
F2466       F  0.29385930  0.34303028  0.11476083    -0.14500
F2467       F  0.23430761  0.31917656  0.04067305    -0.14500
F2468       F  0.33474989  0.38615862  0.01583781    -0.15900
C2469       C  0.69951512  0.71742528  0.99780805     0.14100
C2470       C  0.69507163  0.71999963  0.02883698     0.01100
C2471       C  0.66696438  0.72909064  0.03989107     0.16100
C2472       C  0.64327695  0.73426008  0.02023821     0.25500
C2473       C  0.64745302  0.73060341  0.98936805    -0.40900
C2474       C  0.67573807  0.72257695  0.97815770     0.32500
C2475       C  0.71790178  0.70908495  0.04998620     0.01200
F2476       F  0.66179609  0.73051186  0.06983611    -0.13200
F2477       F  0.67974355  0.71787683  0.94838167    -0.13700
C2478       C  0.72846252  0.72771035  0.07288205     0.16100
C2479       C  0.74416231  0.71557641  0.09698517     0.25500
C2480       C  0.75048515  0.68489843  0.09797140    -0.40800
C2481       C  0.74137744  0.66658651  0.07414923     0.32400
C2482       C  0.72520613  0.67857086  0.05033026     0.14200
F2483       F  0.72162500  0.75726441  0.07296296    -0.13200
F2484       F  0.74574678  0.63659531  0.07535293    -0.13700
F2485       F  0.75038856  0.73332919  0.12056275    -0.16000
F2486       F  0.71421882  0.65988402  0.02910471    -0.14500
F2487       F  0.72640636  0.70840772  0.98675097    -0.14500
F2488       F  0.61568534  0.74058811  0.03143659    -0.15900
C2489       C  0.83984371  0.56788240  0.09250475     0.14100
C2490       C  0.84048829  0.57799453  0.06281848     0.01100
C2491       C  0.83068917  0.60709954  0.05638752     0.16100
C2492       C  0.81790597  0.62484951  0.07879612     0.25500
C2493       C  0.81447516  0.61361820  0.10807923    -0.40900
C2494       C  0.82669794  0.58539221  0.11485769     0.32500
C2495       C  0.84509098  0.55629821  0.03826417     0.01200
F2496       F  0.83149875  0.61749244  0.02785044    -0.13200
F2497       F  0.82418509  0.57384566  0.14277079    -0.13700
C2498       C  0.82090369  0.54982419  0.01941589     0.16100
C2499       C  0.82302662  0.52712626  0.99824655     0.25500
C2500       C  0.84937515  0.50990845  0.99557174    -0.40800
C2501       C  0.87399330  0.51685422  0.01404920     0.32400
C2502       C  0.87180771  0.53990589  0.03527420     0.14200
F2503       F  0.79447849  0.56461936  0.02249289    -0.13200
F2504       F  0.89972421  0.50072461  0.01242310    -0.13700
F2505       F  0.79888119  0.52186153  0.98062370    -0.16000
F2506       F  0.89550479  0.54589346  0.05325727    -0.14500
F2507       F  0.84930192  0.53988538  0.09935469    -0.14500
F2508       F  0.80691630  0.65196118  0.07099251    -0.15900
C2509       C  0.67748998  0.60312241  0.19273789     0.14100
C2510       C  0.68513476  0.57345700  0.19960593     0.01100
C2511       C  0.71561915  0.56622870  0.20257133     0.16100
C2512       C  0.73793429  0.58717255  0.19547318     0.25500
C2513       C  0.73040744  0.61580537  0.18426368    -0.40900
C2514       C  0.69978700  0.62426473  0.18610616     0.32500
C2515       C  0.66169106  0.54962121  0.20156300     0.01200
F2516       F  0.72388273  0.53812750  0.21038483    -0.13200
F2517       F  0.69112365  0.65298112  0.18170418    -0.13700
C2518       C  0.64518023  0.54176459  0.17599515     0.16100
C2519       C  0.62507121  0.51771113  0.17657793     0.25500
C2520       C  0.62060093  0.50080946  0.20293042    -0.40800
C2521       C  0.63655532  0.50935070  0.22883863     0.32400
C2522       C  0.65693524  0.53333340  0.22807392     0.14200
F2523       F  0.64931753  0.55681395  0.14994821    -0.13200
F2524       F  0.63319300  0.49397720  0.25478043    -0.13700
F2525       F  0.61005996  0.51097729  0.15107165    -0.16000
F2526       F  0.67218091  0.54060772  0.25327777    -0.14500
F2527       F  0.64827278  0.61153003  0.19185577    -0.14500
F2528       F  0.76700856  0.57866315  0.19796117    -0.15900
C2529       C  0.79906345  0.31505477  0.08416768     0.14100
C2530       C  0.82773866  0.31549735  0.07110776     0.01100
C2531       C  0.84788943  0.29216057  0.07750587     0.16100
C2532       C  0.83868144  0.26775616  0.09490526     0.25500
C2533       C  0.80951261  0.26673207  0.10667028    -0.40900
C2534       C  0.78991560  0.29075141  0.10135939     0.32500
C2535       C  0.83447220  0.33763315  0.04730622     0.01200
F2536       F  0.87561652  0.29187155  0.06500999    -0.13200
F2537       F  0.76089686  0.28938777  0.11032668    -0.13700
C2538       C  0.85931587  0.35684796  0.04890223     0.16100
C2539       C  0.86464416  0.37779742  0.02605021     0.25500
C2540       C  0.84488276  0.38002317  0.00163173    -0.40800
C2541       C  0.82053716  0.36024115  0.99991627     0.32400
C2542       C  0.81553456  0.33925720  0.02230619     0.14200
F2543       F  0.87776873  0.35596781  0.07298209    -0.13200
F2544       F  0.80153370  0.36097798  0.97622773    -0.13700
F2545       F  0.88827616  0.39661320  0.02841337    -0.16000
F2546       F  0.79208616  0.32024553  0.01941748    -0.14500
F2547       F  0.77910646  0.33727113  0.07849207    -0.14500
F2548       F  0.85773031  0.24451851  0.09913724    -0.15900
C2549       C  0.73369702  0.31046982  0.19383612     0.14100
C2550       C  0.70365497  0.30447396  0.20102720     0.01100
C2551       C  0.69299546  0.27521825  0.19850911     0.16100
C2552       C  0.71089569  0.25315628  0.18553917     0.25500
C2553       C  0.73969348  0.26001509  0.17452300    -0.40900
C2554       C  0.75170381  0.28838079  0.18069101     0.32500
C2555       C  0.68190310  0.32923939  0.20405961     0.01200
F2556       F  0.66415570  0.26872059  0.20556630    -0.13200
F2557       F  0.77964552  0.29584089  0.17148729    -0.13700
C2558       C  0.67648963  0.34736014  0.17905928     0.16100
C2559       C  0.65364998  0.36860425  0.17953120     0.25500
C2560       C  0.63540440  0.37221603  0.20509055    -0.40800
C2561       C  0.64120067  0.35430879  0.23045483     0.32400
C2562       C  0.66419092  0.33285456  0.22982859     0.14200
F2563       F  0.69242362  0.34336558  0.15341568    -0.13200
F2564       F  0.62389649  0.35659716  0.25537814    -0.13700
F2565       F  0.64916438  0.38524943  0.15454860    -0.16000
F2566       F  0.66872497  0.31514137  0.25404625    -0.14500
F2567       F  0.74471226  0.33847403  0.19717461    -0.14500
F2568       F  0.69910408  0.22556440  0.18167993    -0.15900
C2569       C  0.66295256  0.13093109  0.01844513     0.14100
C2570       C  0.66206496  0.15578016  0.03768638     0.01100
C2571       C  0.63643591  0.17399359  0.03822658     0.16100
C2572       C  0.61337777  0.16927478  0.01792479     0.25500
C2573       C  0.61531286  0.14604410  0.99680322    -0.40900
C2574       C  0.63957898  0.12599310  0.99810488     0.32500
C2575       C  0.68875435  0.16507219  0.05481988     0.01200
F2576       F  0.63438469  0.19732427  0.05757530    -0.13200
F2577       F  0.64175478  0.10305045  0.97834794    -0.13700
C2578       C  0.70074452  0.19347899  0.04980751     0.16100
C2579       C  0.72357468  0.20439382  0.06783288     0.25500
C2580       C  0.73614871  0.18675784  0.09093991    -0.40800
C2581       C  0.72388269  0.15796505  0.09576863     0.32400
C2582       C  0.70077239  0.14718011  0.07754751     0.14200
F2583       F  0.68931779  0.21138523  0.02808950    -0.13200
F2584       F  0.73171808  0.14115108  0.11967571    -0.13700
F2585       F  0.73165736  0.23333585  0.06397586    -0.16000
F2586       F  0.68865578  0.12007219  0.08352878    -0.14500
F2587       F  0.68728477  0.11271428  0.01797284    -0.14500
F2588       F  0.58949265  0.18813316  0.01828067    -0.15900
C2589       C  0.44454641  0.69107426  0.06139864     0.14100
C2590       C  0.44839315  0.72190537  0.06378548     0.01100
C2591       C  0.42804841  0.73859795  0.08114098     0.16100
C2592       C  0.40530187  0.72412475  0.09755064     0.25500
C2593       C  0.40304889  0.69261227  0.09708995    -0.40900
C2594       C  0.42246048  0.67674041  0.07762710     0.32500
C2595       C  0.47409902  0.73520216  0.04766693     0.01200
F2596       F  0.43036810  0.76874062  0.08240578    -0.13200
F2597       F  0.42052787  0.64669879  0.07458004    -0.13700
C2598       C  0.46951651  0.75210935  0.02158268     0.16100
C2599       C  0.49267932  0.75506380  0.00047082     0.25500
C2600       C  0.52035631  0.74073484  0.00518092    -0.40800
C2601       C  0.52573223  0.72652538  0.03261986     0.32400
C2602       C  0.50294080  0.72416085  0.05386991     0.14200
F2603       F  0.44185111  0.76287092  0.01505584    -0.13200
F2604       F  0.55242268  0.71293056  0.03787510    -0.13700
F2605       F  0.48699315  0.76894974  0.97408651    -0.16000
F2606       F  0.50799189  0.70799905  0.07907815    -0.14500
F2607       F  0.46257546  0.67452793  0.04324169    -0.14500
F2608       F  0.38550368  0.74116167  0.11291572    -0.15900
C2609       C  0.43352332  0.56131747  0.14615499     0.14100
C2610       C  0.42645604  0.54763191  0.17346838     0.01100
C2611       C  0.40218280  0.55857120  0.19039666     0.16100
C2612       C  0.38620903  0.58383020  0.18063801     0.25500
C2613       C  0.39506958  0.59901250  0.15458375    -0.40900
C2614       C  0.41783903  0.58641214  0.13666057     0.32500
C2615       C  0.44563807  0.52280592  0.18403391     0.01200
F2616       F  0.39407784  0.54487124  0.21625103    -0.13200
F2617       F  0.42488814  0.59819657  0.10960805    -0.13700
C2618       C  0.46423111  0.52668891  0.20909031     0.16100
C2619       C  0.48747179  0.50637222  0.21487211     0.25500
C2620       C  0.49250365  0.48210875  0.19546113    -0.40800
C2621       C  0.47259928  0.47727267  0.17159250     0.32400
C2622       C  0.44934016  0.49735711  0.16601894     0.14200
F2623       F  0.46139543  0.55139214  0.22650850    -0.13200
F2624       F  0.47619696  0.45346817  0.15306518    -0.13700
F2625       F  0.50640578  0.51173522  0.23796871    -0.16000
F2626       F  0.43139304  0.49288994  0.14194278    -0.14500
F2627       F  0.45648689  0.55096341  0.12902310    -0.14500
F2628       F  0.36240700  0.59358007  0.19668958    -0.15900
C2629       C  0.33894182  0.57798696  0.04370501     0.14100
C2630       C  0.31367665  0.56140779  0.05149091     0.01100
C2631       C  0.29892238  0.56752710  0.07855363     0.16100
C2632       C  0.30901048  0.59057126  0.09730087     0.25500
C2633       C  0.33350624  0.60857317  0.08888116    -0.40900
C2634       C  0.34897270  0.60092886  0.06213062     0.32500
C2635       C  0.30461083  0.53640454  0.03197797     0.01200
F2636       F  0.27518928  0.55071631  0.08715045    -0.13200
F2637       F  0.37489519  0.61441495  0.05411646    -0.13700
C2638       C  0.32259955  0.51076042  0.03072449     0.16100
C2639       C  0.31715149  0.48873082  0.00937374     0.25500
C2640       C  0.29369040  0.49199123  0.98858675    -0.40800
C2641       C  0.27483373  0.51714847  0.99061618     0.32400
C2642       C  0.28040310  0.53933800  0.01213736     0.14200
F2643       F  0.34605147  0.50748376  0.04974833    -0.13200
F2644       F  0.25206045  0.52096186  0.97092019    -0.13700
F2645       F  0.33490262  0.46405705  0.00907287    -0.16000
F2646       F  0.26311935  0.56430911  0.01273799    -0.14500
F2647       F  0.35435708  0.57156179  0.01823084    -0.14500
F2648       F  0.29479653  0.59481943  0.12365450    -0.15900
loop_ 
_geom_bond_atom_site_label_1 
_geom_bond_atom_site_label_2 
_geom_bond_distance 
_geom_bond_site_symmetry_2 
_ccdc_geom_bond_type 
C1            C2   1.531       .  S
C1            C7   1.537       .  S
C1            C5   1.526       .  S
C1         C2593   1.536       .  S
C2            H9   1.086       .  S
C2            C3   1.364       .  D
C3            C4   1.551       .  S
C3         C2633   1.509       .  S
C4            C8   1.534       .  S
C4            C6   1.577       .  S
C4           H10   1.103       .  S
C5           H11   1.080       .  S
C5            C6   1.381       .  D
C6          C543   1.554       .  S
C7           H12   1.087       .  S
C7            C8   1.360       .  D
C8         C2613   1.490       .  S
C13          C14   1.527       .  S
C13          C19   1.528       .  S
C13          C17   1.530       .  S
C13        C2580   1.534       .  S
C14          H21   1.086       .  S
C14          C15   1.358       .  D
C15          C16   1.551       .  S
C15        C2533   1.480       .  S
C16          C20   1.537       .  S
C16          C18   1.567       .  S
C16          H22   1.102       .  S
C17          H23   1.071       .  S
C17          C18   1.384       .  D
C18         C542   1.576       .  S
C19          H24   1.086       .  S
C19          C20   1.362       .  D
C20        C2553   1.490       .  S
C25          C26   1.539       .  S
C25          C31   1.538       .  S
C25          C29   1.545       .  S
C25        C2513   1.558       .  S
C26          H33   1.085       .  S
C26          C27   1.365       .  D
C27          C28   1.537       .  S
C27        C2493   1.490       .  S
C28          C32   1.538       .  S
C28          C30   1.555       .  S
C28          H34   1.103       .  S
C29          H35   1.076       .  S
C29          C30   1.382       .  D
C30         C546   1.565       .  S
C31          H36   1.084       .  S
C31          C32   1.360       .  D
C32        C2480   1.476       .  S
C37          C38   1.532       .  S
C37          C43   1.526       .  S
C37          C41   1.515       .  S
C37        C2460   1.532       .  S
C38          H45   1.083       .  S
C38          C39   1.361       .  D
C39          C40   1.545       .  S
C39        C2433   1.505       .  S
C40          C44   1.566       .  S
C40          C42   1.580       .  S
C40          H46   1.080       .  S
C41          H47   1.075       .  S
C41          C42   1.382       .  D
C42         C541   1.592       .  S
C43          H48   1.086       .  S
C43          C44   1.360       .  D
C44        C2420   1.491       .  S
O49         Ni57   1.925       .  S
O49          C59   1.283       .  A
O50         Ni57   1.919       .  S
O50          C60   1.282       .  A
O51         Ni57   1.907       .  S
O51          C61   1.280       .  A
O52         Ni57   1.909       .  S
O52          C62   1.280       .  A
O53         Ni58   1.927       .  S
O53          C62   1.283       .  A
O54         Ni58   1.928       .  S
O54          C61   1.283       .  A
O55         Ni58   1.945       .  S
O55          C60   1.287       .  A
O56         Ni58   1.946       .  S
O56          C59   1.287       .  A
Ni57        Ni58   2.382       .  S
C59        C2520   1.507       .  S
C60        C2413   1.500       .  S
C61        C2620   1.478       .  S
C62        C2560   1.488       .  S
C63          C64   1.527       .  S
C63          C69   1.537       .  S
C63          C67   1.544       .  S
C63        C2353   1.536       .  S
C64          H71   1.087       .  S
C64          C65   1.357       .  D
C65          C66   1.536       .  S
C65        C2393   1.480       .  S
C66          C70   1.543       .  S
C66          C68   1.564       .  S
C66          H72   1.105       .  S
C67          H73   1.080       .  S
C67          C68   1.385       .  D
C68         C544   1.554       .  S
C69          H74   1.087       .  S
C69          C70   1.357       .  D
C70        C2373   1.486       .  S
C75          C76   1.535       .  S
C75          C81   1.528       .  S
C75          C79   1.532       .  S
C75        C2333   1.540       .  S
C76          H83   1.084       .  S
C76          C77   1.366       .  D
C77          C78   1.554       .  S
C77        C2320   1.505       .  S
C78          C82   1.553       .  S
C78          C80   1.563       .  S
C78          H84   1.105       .  S
C79          H85   1.078       .  S
C79          C80   1.374       .  D
C80         C545   1.556       .  S
C81          H86   1.085       .  S
C81          C82   1.356       .  D
C82        C2293   1.482       .  S
C87          C88   1.522       .  S
C87          C93   1.536       .  S
C87          C91   1.542       .  S
C87        C2280   1.533       .  S
C88          H95   1.088       .  S
C88          C89   1.350       .  D
C89          C90   1.553       .  S
C89        C2253   1.488       .  S
C90          C94   1.548       .  S
C90          C92   1.565       .  S
C90          H96   1.103       .  S
C91          H97   1.081       .  S
C91          C92   1.384       .  D
C92         C728   1.558       .  S
C93          H98   1.085       .  S
C93          C94   1.366       .  D
C94        C2240   1.503       .  S
C99         C100   1.536       .  S
C99         C105   1.525       .  S
C99         C103   1.521       .  S
C99        C2180   1.540       .  S
C100        H107   1.087       .  S
C100        C101   1.358       .  D
C101        C102   1.548       .  S
C101       C2193   1.486       .  S
C102        C106   1.551       .  S
C102        C104   1.578       .  S
C102        H108   1.104       .  S
C103        H109   1.074       .  S
C103        C104   1.380       .  D
C104        C547   1.592       .  S
C105        H110   1.082       .  S
C105        C106   1.366       .  D
C106       C2213   1.486       .  S
O111       Ni119   1.922       .  S
O111        C121   1.283       .  A
O112       Ni119   1.913       .  S
O112        C122   1.281       .  A
O113       Ni119   1.908       .  S
O113        C123   1.278       .  A
O114       Ni119   1.905       .  S
O114        C124   1.279       .  A
O115       Ni120   1.934       .  S
O115        C124   1.284       .  A
O116       Ni120   1.932       .  S
O116        C123   1.284       .  A
O117       Ni120   1.913       .  S
O117        C122   1.281       .  A
O118       Ni120   1.916       .  S
O118        C121   1.280       .  A
Ni119      Ni120   2.386       .  S
C121       C2220   1.491       .  S
C122       C2453   1.479   1_556  S
C123       C2380   1.473       .  S
C124       C2640   1.481       .  S
O125       Ni133   1.911       .  S
O125        C135   1.281       .  A
O126       Ni133   1.913       .  S
O126        C136   1.281       .  A
O127       Ni133   1.898       .  S
O127        C137   1.276       .  A
O128       Ni133   1.902       .  S
O128        C138   1.279       .  A
O129       Ni134   1.929       .  S
O129        C138   1.283       .  A
O130       Ni134   1.928       .  S
O130        C137   1.282       .  A
O131       Ni134   1.928       .  S
O131        C136   1.284       .  A
O132       Ni134   1.927       .  S
O132        C135   1.282       .  A
Ni133      Ni134   2.387       .  S
C135       C2600   1.474   1_556  S
C136       C2260   1.494       .  S
C137       C2473   1.461       .  S
C138       C2173   1.487       .  S
O139       Ni147   1.931       .  S
O139        C149   1.283       .  A
O140       Ni147   1.928       .  S
O140        C150   1.283       .  A
O141       Ni147   1.940       .  S
O141        C151   1.285       .  A
O142       Ni147   1.938       .  S
O142        C152   1.286       .  A
O143       Ni148   1.900       .  S
O143        C152   1.278       .  A
O144       Ni148   1.897       .  S
O144        C151   1.278       .  A
O145       Ni148   1.904       .  S
O145        C150   1.280       .  A
O146       Ni148   1.906       .  S
O146        C149   1.280       .  A
Ni147      Ni148   2.384       .  S
C149       C2300   1.482       .  S
C150       C2500   1.485       .  S
C151       C2540   1.481   1_556  S
C152       C2233   1.493       .  S
O153       Ni161   1.929       .  S
O153        C163   1.283       .  A
O154       Ni161   1.931       .  S
O154        C164   1.283       .  A
O155       Ni161   1.931       .  S
O155        C165   1.284       .  A
O156       Ni161   1.929       .  S
O156        C166   1.283       .  A
O157       Ni162   1.896       .  S
O157        C166   1.278       .  A
O158       Ni162   1.896       .  S
O158        C165   1.277       .  A
O159       Ni162   1.906       .  S
O159        C164   1.280       .  A
O160       Ni162   1.908       .  S
O160        C163   1.279       .  A
Ni161      Ni162   2.386       .  S
C163       C2340   1.479       .  S
C164       C2440   1.483       .  S
C165       C2400   1.486       .  S
C166       C2573   1.474       .  S
O167       Ni175   1.944       .  S
O167        C177   1.287       .  A
O168       Ni175   1.941       .  S
O168        C178   1.285       .  A
O169       Ni175   1.921       .  S
O169        C179   1.281       .  A
O170       Ni175   1.921       .  S
O170        C180   1.280       .  A
O171       Ni176   1.916       .  S
O171        C180   1.282       .  A
O172       Ni176   1.911       .  S
O172        C179   1.281       .  A
O173       Ni176   1.900       .  S
O173        C178   1.277       .  A
O174       Ni176   1.902       .  S
O174        C177   1.278       .  A
Ni175      Ni176   2.389       .  S
C177       C2313   1.490       .  S
C178       C2200   1.473       .  S
C179       C2273   1.472       .  S
C180       C2360   1.475       .  S
C181        C182   1.530       .  S
C181        C187   1.537       .  S
C181        C185   1.526       .  S
C181       C2160   1.542       .  S
C182        H189   1.077       .  S
C182        C183   1.360       .  D
C183        C184   1.549       .  S
C183       C2140   1.479       .  S
C184        C188   1.542       .  S
C184        C186   1.565       .  S
C184        H190   1.101       .  S
C185        H191   1.071       .  S
C185        C186   1.379       .  D
C186        C545   1.570       .  S
C187        H192   1.085       .  S
C187        C188   1.365       .  D
C188       C2120   1.499       .  S
C193        C194   1.535       .  S
C193        C199   1.516       .  S
C193        C197   1.516       .  S
C193       C2093   1.533       .  S
C194        H201   1.082       .  S
C194        C195   1.372       .  D
C195        C196   1.558       .  S
C195       C2080   1.515       .  S
C196        C200   1.559       .  S
C196        C198   1.574       .  S
C196        H202   1.102       .  S
C197        H203   1.063       .  S
C197        C198   1.369       .  D
C198        C542   1.570       .  S
C199        H204   1.087       .  S
C199        C200   1.357       .  D
C200       C2053   1.483       .  S
C205        C206   1.527       .  S
C205        C211   1.533       .  S
C205        C209   1.529       .  S
C205       C2033   1.541       .  S
C206        H213   1.087       .  S
C206        C207   1.357       .  D
C207        C208   1.553       .  S
C207       C1993   1.485       .  S
C208        C212   1.548       .  S
C208        C210   1.570       .  S
C208        H214   1.102       .  S
C209        H215   1.066       .  S
C209        C210   1.376       .  D
C210        C544   1.570       .  S
C211        H216   1.085       .  S
C211        C212   1.370       .  D
C212       C2020   1.503       .  S
C217        C218   1.518       .  S
C217        C223   1.530       .  S
C217        C221   1.538       .  S
C217       C1960   1.542       .  S
C218        H225   1.088       .  S
C218        C219   1.349       .  D
C219        C220   1.537       .  S
C219       C1940   1.475       .  S
C220        C224   1.552       .  S
C220        C222   1.572       .  S
C220        H226   1.089       .  S
C221        H227   1.066       .  S
C221        C222   1.396       .  D
C222        C541   1.594       .  S
C223        H228   1.087       .  S
C223        C224   1.365       .  D
C224       C1973   1.492       .  S
O229       Ni237   1.904       .  S
O229        C239   1.279       .  A
O230       Ni237   1.911       .  S
O230        C240   1.279       .  A
O231       Ni237   1.909       .  S
O231        C241   1.279       .  A
O232       Ni237   1.912       .  S
O232        C242   1.281       .  A
O233       Ni238   1.938       .  S
O233        C242   1.286       .  A
O234       Ni238   1.946       .  S
O234        C241   1.287       .  A
O235       Ni238   1.923       .  S
O235        C240   1.281       .  A
O236       Ni238   1.921       .  S
O236        C239   1.281       .  A
Ni237      Ni238   2.387       .  S
C239       C2153   1.470       .  S
C240       C1933   1.467       .  S
C241       C2073   1.489       .  S
C242       C2013   1.499       .  S
C243        C244   1.533       .  S
C243        C249   1.528       .  S
C243        C247   1.527       .  S
C243       C1880   1.543       .  S
C244        H251   1.087       .  S
C244        C245   1.357       .  D
C245        C246   1.545       .  S
C245       C1893   1.484       .  S
C246        C250   1.558       .  S
C246        C248   1.567       .  S
C246        H252   1.100       .  S
C247        H253   1.071       .  S
C247        C248   1.379       .  D
C248        C546   1.575       .  S
C249        H254   1.078       .  S
C249        C250   1.368       .  D
C250       C1913   1.501       .  S
C255        C256   1.540       .  S
C255        C261   1.535       .  S
C255        C259   1.528       .  S
C255       C1813   1.537       .  S
C256        H263   1.085       .  S
C256        C257   1.359       .  D
C257        C258   1.542       .  S
C257       C1860   1.481       .  S
C258        C262   1.546       .  S
C258        C260   1.559       .  S
C258        H264   1.104       .  S
C259        H265   1.081       .  S
C259        C260   1.372       .  D
C260        C543   1.547       .  S
C261        H266   1.085       .  S
C261        C262   1.367       .  D
C262       C1833   1.493       .  S
C267        C268   1.530       .  S
C267        C273   1.521       .  S
C267        C271   1.518       .  S
C267       C1760   1.539       .  S
C268        H275   1.087       .  S
C268        C269   1.357       .  D
C269        C270   1.538       .  S
C269       C1793   1.480       .  S
C270        C274   1.571       .  S
C270        C272   1.587       .  S
C270        H276   1.107       .  S
C271        H277   1.068       .  S
C271        C272   1.387       .  D
C272        C547   1.616       .  S
C273        H278   1.079       .  S
C273        C274   1.364       .  D
C274       C1773   1.501       .  S
C279        C280   1.528       .  S
C279        C285   1.536       .  S
C279        C283   1.510       .  S
C279       C1713   1.530       .  S
C280        H287   1.086       .  S
C280        C281   1.367       .  D
C281        C282   1.557       .  S
C281       C1700   1.493       .  S
C282        C286   1.540       .  S
C282        C284   1.582       .  S
C282        H288   1.106       .  S
C283        H289   1.069       .  S
C283        C284   1.372       .  D
C284        C728   1.569       .  S
C285        H290   1.085       .  S
C285        C286   1.361       .  D
C286       C1740   1.489       .  S
O291       Ni299   1.927       .  S
O291        C301   1.282       .  A
O292       Ni299   1.924       .  S
O292        C302   1.282       .  A
O293       Ni299   1.931       .  S
O293        C303   1.284       .  A
O294       Ni299   1.930       .  S
O294        C304   1.284       .  A
O295       Ni300   1.904       .  S
O295        C304   1.279       .  A
O296       Ni300   1.894       .  S
O296        C303   1.277       .  A
O297       Ni300   1.917       .  S
O297        C302   1.282       .  A
O298       Ni300   1.920       .  S
O298        C301   1.281       .  A
Ni299      Ni300   2.385       .  S
C301       C1873   1.481       .  S
C302       C2113   1.486   1_565  S
C303       C1720   1.480       .  S
C304       C2060   1.489   1_565  S
O305       Ni313   1.947       .  S
O305        C315   1.287       .  A
O306       Ni313   1.947       .  S
O306        C316   1.287       .  A
O307       Ni313   1.918       .  S
O307        C317   1.279       .  A
O308       Ni313   1.918       .  S
O308        C318   1.281       .  A
O309       Ni314   1.912       .  S
O309        C318   1.281       .  A
O310       Ni314   1.909       .  S
O310        C317   1.280       .  A
O311       Ni314   1.898       .  S
O311        C316   1.277       .  A
O312       Ni314   1.902       .  S
O312        C315   1.278       .  A
Ni313      Ni314   2.388       .  S
C315       C2000   1.489   1_565  S
C316       C1693   1.484       .  S
C317       C2133   1.463       .  S
C318       C1753   1.480       .  S
O319       Ni327   1.929       .  S
O319        C329   1.283       .  A
O320       Ni327   1.928       .  S
O320        C330   1.282       .  A
O321       Ni327   1.929       .  S
O321        C331   1.283       .  A
O322       Ni327   1.934       .  S
O322        C332   1.283       .  A
O323       Ni328   1.906       .  S
O323        C332   1.279       .  A
O324       Ni328   1.913       .  S
O324        C331   1.280       .  A
O325       Ni328   1.908       .  S
O325        C330   1.279       .  A
O326       Ni328   1.909       .  S
O326        C329   1.281       .  A
Ni327      Ni328   2.390       .  S
C329       C1853   1.480       .  S
C330       C2040   1.468       .  S
C331       C1953   1.476       .  S
C332       C1800   1.472       .  S
O333       Ni341   1.908       .  S
O333        C343   1.280       .  A
O334       Ni341   1.907       .  S
O334        C344   1.280       .  A
O335       Ni341   1.916       .  S
O335        C345   1.281       .  A
O336       Ni341   1.914       .  S
O336        C346   1.281       .  A
O337       Ni342   1.931       .  S
O337        C346   1.284       .  A
O338       Ni342   1.931       .  S
O338        C345   1.284       .  A
O339       Ni342   1.923       .  S
O339        C344   1.282       .  A
O340       Ni342   1.928       .  S
O340        C343   1.283       .  A
Ni341      Ni342   2.381       .  S
C343       C1840   1.490       .  S
C344       C2100   1.484       .  S
C345       C1980   1.497   1_565  S
C346       C1920   1.494       .  S
O347       Ni355   1.936       .  S
O347        C357   1.284       .  A
O348       Ni355   1.930       .  S
O348        C358   1.285       .  A
O349       Ni355   1.917       .  S
O349        C359   1.280       .  A
O350       Ni355   1.925       .  S
O350        C360   1.283       .  A
O351       Ni356   1.925       .  S
O351        C360   1.283       .  A
O352       Ni356   1.924       .  S
O352        C359   1.284       .  A
O353       Ni356   1.914       .  S
O353        C358   1.280       .  A
O354       Ni356   1.914       .  S
O354        C357   1.280       .  A
Ni355      Ni356   2.383       .  S
C357       C1900   1.482       .  S
C358       C1780   1.495       .  S
C359       C1820   1.486       .  S
C360       C1733   1.494       .  S
C361        C362   1.534       .  S
C361        C367   1.529       .  S
C361        C365   1.523       .  S
C361       C1653   1.535       .  S
C362        H369   1.086       .  S
C362        C363   1.356       .  D
C363        C364   1.541       .  S
C363       C1680   1.477       .  S
C364        C368   1.552       .  S
C364        C366   1.569       .  S
C364        H370   1.102       .  S
C365        H371   1.070       .  S
C365        C366   1.378       .  D
C366        C545   1.570       .  S
C367        H372   1.084       .  S
C367        C368   1.366       .  D
C368       C1633   1.497       .  S
C373        C374   1.526       .  S
C373        C379   1.539       .  S
C373        C377   1.537       .  S
C373       C1580   1.540       .  S
C374        H381   1.087       .  S
C374        C375   1.356       .  D
C375        C376   1.550       .  S
C375       C1620   1.486       .  S
C376        C380   1.542       .  S
C376        C378   1.558       .  S
C376        H382   1.102       .  S
C377        H383   1.078       .  S
C377        C378   1.378       .  D
C378        C542   1.549       .  S
C379        H384   1.085       .  S
C379        C380   1.371       .  D
C380       C1593   1.504       .  S
C385        C386   1.529       .  S
C385        C391   1.534       .  S
C385        C389   1.514       .  S
C385       C1513   1.539       .  S
C386        H393   1.085       .  S
C386        C387   1.361       .  D
C387        C388   1.553       .  S
C387       C1553   1.493       .  S
C388        C392   1.554       .  S
C388        C390   1.578       .  S
C388        H394   1.107       .  S
C389        H395   1.069       .  S
C389        C390   1.377       .  D
C390        C546   1.574       .  S
C391        H396   1.085       .  S
C391        C392   1.367       .  D
C392       C1540   1.495       .  S
C397        C398   1.537       .  S
C397        C403   1.523       .  S
C397        C401   1.532       .  S
C397       C1453   1.548       .  S
C398        H405   1.083       .  S
C398        C399   1.371       .  D
C399        C400   1.547       .  S
C399       C1493   1.509       .  S
C400        C404   1.546       .  S
C400        C402   1.563       .  S
C400        H406   1.095       .  S
C401        H407   1.075       .  S
C401        C402   1.386       .  D
C402        C728   1.581       .  S
C403        H408   1.080       .  S
C403        C404   1.356       .  D
C404       C1473   1.474       .  S
O409       Ni417   1.925       .  S
O409        C419   1.283       .  A
O410       Ni417   1.926       .  S
O410        C420   1.283       .  A
O411       Ni417   1.927       .  S
O411        C421   1.283       .  A
O412       Ni417   1.932       .  S
O412        C422   1.284       .  A
O413       Ni418   1.908       .  S
O413        C422   1.280       .  A
O414       Ni418   1.910       .  S
O414        C421   1.280       .  A
O415       Ni418   1.913       .  S
O415        C420   1.281       .  A
O416       Ni418   1.917       .  S
O416        C419   1.282       .  A
Ni417      Ni418   2.383       .  S
C419       C1440   1.493       .  S
C420       C1460   1.483       .  S
C421       C1420   1.481       .  S
C422       C1520   1.492       .  S
O423       Ni431   1.907       .  S
O423        C433   1.280       .  A
O424       Ni431   1.910       .  S
O424        C434   1.280       .  A
O425       Ni431   1.916       .  S
O425        C435   1.281       .  A
O426       Ni431   1.916       .  S
O426        C436   1.281       .  A
O427       Ni432   1.930       .  S
O427        C436   1.284       .  A
O428       Ni432   1.926       .  S
O428        C435   1.283       .  A
O429       Ni432   1.928       .  S
O429        C434   1.284       .  A
O430       Ni432   1.927       .  S
O430        C433   1.283       .  A
Ni431      Ni432   2.381       .  S
C433       C1480   1.484   1_455  S
C434       C1400   1.490       .  S
C435       C1640   1.494       .  S
C436       C1373   1.496       .  S
O437       Ni445   1.947       .  S
O437        C447   1.288       .  A
O438       Ni445   1.947       .  S
O438        C448   1.287       .  A
O439       Ni445   1.922       .  S
O439        C449   1.282       .  A
O440       Ni445   1.922       .  S
O440        C450   1.281       .  A
O441       Ni446   1.917       .  S
O441        C450   1.282       .  A
O442       Ni446   1.917       .  S
O442        C449   1.282       .  A
O443       Ni446   1.909       .  S
O443        C448   1.279       .  A
O444       Ni446   1.906       .  S
O444        C447   1.279       .  A
Ni445      Ni446   2.381       .  S
C447       C1560   1.499   1_455  S
C448       C1333   1.497       .  S
C449       C1613   1.493       .  S
C450       C1353   1.484       .  S
O451       Ni459   1.923       .  S
O451        C461   1.282       .  A
O452       Ni459   1.926       .  S
O452        C462   1.282       .  A
O453       Ni459   1.933       .  S
O453        C463   1.284       .  A
O454       Ni459   1.930       .  S
O454        C464   1.284       .  A
O455       Ni460   1.911       .  S
O455        C464   1.281       .  A
O456       Ni460   1.909       .  S
O456        C463   1.280       .  A
O457       Ni460   1.910       .  S
O457        C462   1.279       .  A
O458       Ni460   1.905       .  S
O458        C461   1.280       .  A
Ni459      Ni460   2.385       .  S
C461       C1293   1.482       .  S
C462       C1673   1.473   1_455  S
C463       C1600   1.486   1_455  S
C464       C1313   1.491       .  S
O465       Ni473   1.918       .  S
O465        C475   1.283       .  A
O466       Ni473   1.914       .  S
O466        C476   1.281       .  A
O467       Ni473   1.910       .  S
O467        C477   1.279       .  A
O468       Ni473   1.902       .  S
O468        C478   1.278       .  A
O469       Ni474   1.930       .  S
O469        C478   1.284       .  A
O470       Ni474   1.931       .  S
O470        C477   1.284       .  A
O471       Ni474   1.920       .  S
O471        C476   1.280       .  A
O472       Ni474   1.919       .  S
O472        C475   1.281       .  A
Ni473      Ni474   2.387       .  S
C475       C1500   1.490       .  S
C476       C1573   1.469       .  S
C477       C1533   1.478       .  S
C478       C1660   1.476       .  S
C479        C480   1.537       .  S
C479        C485   1.532       .  S
C479        C483   1.525       .  S
C479       C1320   1.540       .  S
C480        H487   1.086       .  S
C480        C481   1.362       .  D
C481        C482   1.544       .  S
C481       C1280   1.483       .  S
C482        C486   1.547       .  S
C482        C484   1.575       .  S
C482        H488   1.102       .  S
C483        H489   1.072       .  S
C483        C484   1.378       .  D
C484        C544   1.579       .  S
C485        H490   1.084       .  S
C485        C486   1.365       .  D
C486       C1393   1.497       .  S
C491        C492   1.536       .  S
C491        C497   1.541       .  S
C491        C495   1.521       .  S
C491       C1360   1.538       .  S
C492        H499   1.086       .  S
C492        C493   1.363       .  D
C493        C494   1.541       .  S
C493       C1433   1.481       .  S
C494        C498   1.546       .  S
C494        C496   1.568       .  S
C494        H500   1.107       .  S
C495        H501   1.074       .  S
C495        C496   1.365       .  D
C496        C543   1.546       .  S
C497        H502   1.082       .  S
C497        C498   1.367       .  D
C498       C1260   1.497       .  S
C503        C504   1.530       .  S
C503        C509   1.541       .  S
C503        C507   1.516       .  S
C503       C1233   1.540       .  S
C504        H511   1.084       .  S
C504        C505   1.360       .  D
C505        C506   1.548       .  S
C505       C1413   1.506       .  S
C506        C510   1.546       .  S
C506        C508   1.581       .  S
C506        H512   1.082       .  S
C507        H513   1.066       .  S
C507        C508   1.373       .  D
C508        C547   1.586       .  S
C509        H514   1.082       .  S
C509        C510   1.367       .  D
C510       C1380   1.499       .  S
C515        C516   1.525       .  S
C515        C521   1.534       .  S
C515        C519   1.516       .  S
C515       C1300   1.533       .  S
C516        H523   1.084       .  S
C516        C517   1.362       .  D
C517        C518   1.566       .  S
C517       C1340   1.491       .  S
C518        C522   1.553       .  S
C518        C520   1.576       .  S
C518        H524   1.102       .  S
C519        H525   1.076       .  S
C519        C520   1.373       .  D
C520        C541   1.575       .  S
C521        H526   1.084       .  S
C521        C522   1.368       .  D
C522       C1213   1.512       .  S
O527       Ni535   1.904       .  S
O527        C537   1.277       .  A
O528       Ni535   1.910       .  S
O528        C538   1.278       .  A
O529       Ni535   1.923       .  S
O529        C539   1.284       .  A
O530       Ni535   1.924       .  S
O530        C540   1.284       .  A
O531       Ni536   1.926       .  S
O531        C540   1.283       .  A
O532       Ni536   1.919       .  S
O532        C539   1.280       .  A
O533       Ni536   1.932       .  S
O533        C538   1.283       .  A
O534       Ni536   1.934       .  S
O534        C537   1.284       .  A
Ni535      Ni536   2.388       .  S
C537       C1253   1.470       .  S
C538       C1273   1.471       .  S
C539       C1240   1.485       .  S
C540       C1220   1.491       .  S
C541        C553   1.579       .  S
C542        C577   1.551       .  S
C543        C589   1.553       .  S
C544        C565   1.558       .  S
C545        C653   1.561       .  S
C546        C601   1.560       .  S
C547        C627   1.610       .  S
C548        C549   1.526       .  S
C548        C554   1.522       .  S
C548        C552   1.531       .  S
C548       C1193   1.534       .  S
C549        H556   1.086       .  S
C549        C550   1.364       .  D
C550        C551   1.556       .  S
C550       C1173   1.489       .  S
C551        C555   1.540       .  S
C551        C553   1.572       .  S
C551        H557   1.106       .  S
C552        H558   1.071       .  S
C552        C553   1.384       .  D
C554        H559   1.088       .  S
C554        C555   1.355       .  D
C555       C1153   1.478       .  S
C560        C561   1.535       .  S
C560        C566   1.537       .  S
C560        C564   1.525       .  S
C560       C1120   1.537       .  S
C561        H568   1.086       .  S
C561        C562   1.359       .  D
C562        C563   1.548       .  S
C562       C1093   1.490       .  S
C563        C567   1.547       .  S
C563        C565   1.571       .  S
C563        H569   1.105       .  S
C564        H570   1.081       .  S
C564        C565   1.373       .  D
C566        H571   1.083       .  S
C566        C567   1.366       .  D
C567       C1133   1.494       .  S
C572        C573   1.538       .  S
C572        C578   1.533       .  S
C572        C576   1.546       .  S
C572       C1060   1.541       .  S
C573        H580   1.086       .  S
C573        C574   1.363       .  D
C574        C575   1.534       .  S
C574       C1040   1.496       .  S
C575        C579   1.545       .  S
C575        C577   1.561       .  S
C575        H581   1.100       .  S
C576        H582   1.081       .  S
C576        C577   1.385       .  D
C578        H583   1.087       .  S
C578        C579   1.354       .  D
C579       C1073   1.483       .  S
C584        C585   1.529       .  S
C584        C590   1.537       .  S
C584        C588   1.542       .  S
C584       C1000   1.539       .  S
C585        H592   1.088       .  S
C585        C586   1.358       .  D
C586        C587   1.545       .  S
C586       C1013   1.494       .  S
C587        C591   1.537       .  S
C587        C589   1.569       .  S
C587        H593   1.106       .  S
C588        H594   1.081       .  S
C588        C589   1.382       .  D
C590        H595   1.086       .  S
C590        C591   1.363       .  D
C591        C980   1.492       .  S
C596        C597   1.536       .  S
C596        C602   1.535       .  S
C596        C600   1.529       .  S
C596        C933   1.545       .  S
C597        H604   1.086       .  S
C597        C598   1.363       .  D
C598        C599   1.550       .  S
C598        C953   1.488       .  S
C599        C603   1.550       .  S
C599        C601   1.567       .  S
C599        H605   1.105       .  S
C600        H606   1.076       .  S
C600        C601   1.374       .  D
C602        H607   1.083       .  S
C602        C603   1.363       .  D
C603        C920   1.495       .  S
O608       Ni616   1.940       .  S
O608        C618   1.286       .  A
O609       Ni616   1.940       .  S
O609        C619   1.286       .  A
O610       Ni616   1.919       .  S
O610        C620   1.280       .  A
O611       Ni616   1.930       .  S
O611        C621   1.282       .  A
O612       Ni617   1.918       .  S
O612        C621   1.281       .  A
O613       Ni617   1.915       .  S
O613        C620   1.281       .  A
O614       Ni617   1.908       .  S
O614        C619   1.279       .  A
O615       Ni617   1.906       .  S
O615        C618   1.279       .  A
Ni616      Ni617   2.385       .  S
C618       C1180   1.495       .  S
C619        C913   1.485   1_455  S
C620        C993   1.471       .  S
C621       C1053   1.480       .  S
C622        C623   1.530       .  S
C622        C628   1.513       .  S
C622        C626   1.515       .  S
C622        C853   1.531       .  S
C623        H630   1.083       .  S
C623        C624   1.361       .  D
C624        C625   1.552       .  S
C624        C893   1.519       .  S
C625        C629   1.575       .  S
C625        C627   1.590       .  S
C625        H631   1.080       .  S
C626        H632   1.065       .  S
C626        C627   1.382       .  D
C628        H633   1.086       .  S
C628        C629   1.360       .  D
C629        C873   1.489       .  S
O634       Ni642   1.924       .  S
O634        C644   1.281       .  A
O635       Ni642   1.914       .  S
O635        C645   1.280       .  A
O636       Ni642   1.938       .  S
O636        C646   1.285       .  A
O637       Ni642   1.937       .  S
O637        C647   1.285       .  A
O638       Ni643   1.908       .  S
O638        C647   1.280       .  A
O639       Ni643   1.907       .  S
O639        C646   1.280       .  A
O640       Ni643   1.910       .  S
O640        C645   1.281       .  A
O641       Ni643   1.913       .  S
O641        C644   1.280       .  A
Ni642      Ni643   2.386       .  S
C644       C1160   1.468   1_556  S
C645        C860   1.479       .  S
C646       C1100   1.489   1_565  S
C647        C973   1.493       .  S
C648        C649   1.541       .  S
C648        C654   1.532       .  S
C648        C652   1.539       .  S
C648        C833   1.556       .  S
C649        H656   1.083       .  S
C649        C650   1.364       .  D
C650        C651   1.542       .  S
C650        C813   1.490       .  S
C651        C655   1.539       .  S
C651        C653   1.556       .  S
C651        H657   1.107       .  S
C652        H658   1.081       .  S
C652        C653   1.389       .  D
C654        H659   1.086       .  S
C654        C655   1.358       .  D
C655        C800   1.475       .  S
O660       Ni668   1.911       .  S
O660        C670   1.280       .  A
O661       Ni668   1.907       .  S
O661        C671   1.280       .  A
O662       Ni668   1.905       .  S
O662        C672   1.279       .  A
O663       Ni668   1.903       .  S
O663        C673   1.279       .  A
O664       Ni669   1.934       .  S
O664        C673   1.285       .  A
O665       Ni669   1.934       .  S
O665        C672   1.285       .  A
O666       Ni669   1.918       .  S
O666        C671   1.279       .  A
O667       Ni669   1.923       .  S
O667        C670   1.281       .  A
Ni668      Ni669   2.387       .  S
C670       C1200   1.474       .  S
C671        C793   1.465   1_455  S
C672       C1113   1.483       .  S
C673       C1033   1.492   1_455  S
C674        C675   1.530       .  S
C674        C680   1.538       .  S
C674        C678   1.537       .  S
C674        C760   1.542       .  S
C675        H682   1.086       .  S
C675        C676   1.362       .  D
C676        C677   1.543       .  S
C676        C733   1.501       .  S
C677        C681   1.539       .  S
C677        C679   1.564       .  S
C677        H683   1.100       .  S
C678        H684   1.080       .  S
C678        C679   1.380       .  D
C679        C728   1.553       .  S
C680        H685   1.086       .  S
C680        C681   1.365       .  D
C681        C773   1.492       .  S
O686       Ni694   1.928       .  S
O686        C696   1.281       .  A
O687       Ni694   1.924       .  S
O687        C697   1.282       .  A
O688       Ni694   1.944       .  S
O688        C698   1.287       .  A
O689       Ni694   1.943       .  S
O689        C699   1.286       .  A
O690       Ni695   1.906       .  S
O690        C699   1.279       .  A
O691       Ni695   1.906       .  S
O691        C698   1.280       .  A
O692       Ni695   1.913       .  S
O692        C697   1.281       .  A
O693       Ni695   1.909       .  S
O693        C696   1.280       .  A
Ni694      Ni695   2.386       .  S
C696        C753   1.472       .  S
C697       C1020   1.477       .  S
C698        C960   1.492   1_556  S
C699        C900   1.489       .  S
O700       Ni708   1.919       .  S
O700        C710   1.282       .  A
O701       Ni708   1.916       .  S
O701        C711   1.282       .  A
O702       Ni708   1.912       .  S
O702        C712   1.281       .  A
O703       Ni708   1.909       .  S
O703        C713   1.279       .  A
O704       Ni709   1.928       .  S
O704        C713   1.283       .  A
O705       Ni709   1.928       .  S
O705        C712   1.283       .  A
O706       Ni709   1.928       .  S
O706        C711   1.283       .  A
O707       Ni709   1.928       .  S
O707        C710   1.283       .  A
Ni708      Ni709   2.384       .  S
C710        C940   1.486       .  S
C711        C820   1.495   1_565  S
C712       C1080   1.484       .  S
C713        C740   1.477       .  S
O714       Ni722   1.926       .  S
O714        C724   1.283       .  A
O715       Ni722   1.930       .  S
O715        C725   1.284       .  A
O716       Ni722   1.912       .  S
O716        C726   1.281       .  A
O717       Ni722   1.915       .  S
O717        C727   1.281       .  A
O718       Ni723   1.927       .  S
O718        C727   1.283       .  A
O719       Ni723   1.922       .  S
O719        C726   1.282       .  A
O720       Ni723   1.934       .  S
O720        C725   1.284       .  A
O721       Ni723   1.931       .  S
O721        C724   1.284       .  A
Ni722      Ni723   2.379       .  S
C724        C880   1.502       .  S
C725        C840   1.503   1_565  S
C726        C780   1.489   1_455  S
C727       C1140   1.491       .  S
C729        C730   1.404       .  A
C729        C734   1.406       .  A
C729        F747   1.357       .  S
C730        C735   1.478       .  S
C730        C731   1.399       .  A
C731        C732   1.393       .  A
C731        F736   1.359       .  S
C732        C733   1.416       .  A
C732        F748   1.357       .  S
C733        C734   1.409       .  A
C734        F737   1.351       .  S
C735        C738   1.404       .  A
C735        C742   1.405       .  A
C738        C739   1.401       .  A
C738        F743   1.358       .  S
C739        C740   1.406       .  A
C739        F745   1.358       .  S
C740        C741   1.407       .  A
C741        C742   1.399       .  A
C741        F744   1.358       .  S
C742        F746   1.358       .  S
C749        C750   1.407       .  A
C749        C754   1.406   1_655  A
C749        F767   1.358       .  S
C750        C755   1.481       .  S
C750        C751   1.405       .  A
C751        C752   1.393       .  A
C751        F756   1.358       .  S
C752        C753   1.403   1_655  A
C752        F768   1.358       .  S
C753        C754   1.407       .  A
C754        F757   1.358       .  S
C755        C758   1.401       .  A
C755        C762   1.399       .  A
C758        C759   1.406       .  A
C758        F763   1.356       .  S
C759        C760   1.416       .  A
C759        F765   1.344       .  S
C760        C761   1.417       .  A
C761        C762   1.390       .  A
C761        F764   1.358       .  S
C762        F766   1.359       .  S
C769        C770   1.403       .  A
C769        C774   1.398       .  A
C769        F787   1.358       .  S
C770        C775   1.481       .  S
C770        C771   1.404       .  A
C771        C772   1.398       .  A
C771        F776   1.358       .  S
C772        C773   1.410       .  A
C772        F788   1.357       .  S
C773        C774   1.410       .  A
C774        F777   1.354       .  S
C775        C778   1.404       .  A
C775        C782   1.403       .  A
C778        C779   1.396       .  A
C778        F783   1.359       .  S
C779        C780   1.412       .  A
C779        F785   1.358       .  S
C780        C781   1.413       .  A
C781        C782   1.402       .  A
C781        F784   1.357       .  S
C782        F786   1.358       .  S
C789        C790   1.405       .  A
C789        C794   1.391       .  A
C789        F807   1.358       .  S
C790        C795   1.479       .  S
C790        C791   1.408       .  A
C791        C792   1.404       .  A
C791        F796   1.358       .  S
C792        C793   1.405       .  A
C792        F808   1.358   1_655  S
C793        C794   1.401       .  A
C794        F797   1.359       .  S
C795        C798   1.408       .  A
C795        C802   1.405       .  A
C798        C799   1.405       .  A
C798        F803   1.357       .  S
C799        C800   1.403       .  A
C799        F805   1.355       .  S
C800        C801   1.403       .  A
C801        C802   1.387       .  A
C801        F804   1.359       .  S
C802        F806   1.359       .  S
C809        C810   1.405       .  A
C809        C814   1.402       .  A
C809        F827   1.358       .  S
C810        C815   1.482       .  S
C810        C811   1.403       .  A
C811        C812   1.399       .  A
C811        F816   1.358       .  S
C812        C813   1.410       .  A
C812        F828   1.358       .  S
C813        C814   1.407       .  A
C814        F817   1.356       .  S
C815        C818   1.403       .  A
C815        C822   1.402       .  A
C818        C819   1.405       .  A
C818        F823   1.358       .  S
C819        C820   1.415       .  A
C819        F825   1.357       .  S
C820        C821   1.413       .  A
C821        C822   1.397       .  A
C821        F824   1.358       .  S
C822        F826   1.358       .  S
C829        C830   1.402       .  A
C829        C834   1.404       .  A
C829        F847   1.358       .  S
C830        C835   1.493       .  S
C830        C831   1.404       .  A
C831        C832   1.407       .  A
C831        F836   1.357       .  S
C832        C833   1.419       .  A
C832        F848   1.358       .  S
C833        C834   1.418       .  A
C834        F837   1.354       .  S
C835        C838   1.404       .  A
C835        C842   1.406       .  A
C838        C839   1.408       .  A
C838        F843   1.357       .  S
C839        C840   1.415   1_655  A
C839        F845   1.357   1_545  S
C840        C841   1.413       .  A
C841        C842   1.405   1_455  A
C841        F844   1.358       .  S
C842        F846   1.358       .  S
C849        C850   1.401       .  A
C849        C854   1.392       .  A
C849        F867   1.358       .  S
C850        C855   1.476       .  S
C850        C851   1.403       .  A
C851        C852   1.399       .  A
C851        F856   1.358       .  S
C852        C853   1.413       .  A
C852        F868   1.357       .  S
C853        C854   1.415       .  A
C854        F857   1.358       .  S
C855        C858   1.404       .  A
C855        C862   1.404       .  A
C858        C859   1.397       .  A
C858        F863   1.358       .  S
C859        C860   1.409       .  A
C859        F865   1.358       .  S
C860        C861   1.409       .  A
C861        C862   1.395       .  A
C861        F864   1.358       .  S
C862        F866   1.358       .  S
C869        C870   1.407       .  A
C869        C874   1.401       .  A
C869        F887   1.358       .  S
C870        C875   1.499       .  S
C870        C871   1.410       .  A
C871        C872   1.405       .  A
C871        F876   1.358       .  S
C872        C873   1.408       .  A
C872        F888   1.355       .  S
C873        C874   1.410       .  A
C874        F877   1.356       .  S
C875        C878   1.408       .  A
C875        C882   1.409       .  A
C878        C879   1.407       .  A
C878        F883   1.358       .  S
C879        C880   1.414       .  A
C879        F885   1.357       .  S
C880        C881   1.412       .  A
C881        C882   1.402       .  A
C881        F884   1.358       .  S
C882        F886   1.358       .  S
C889        C890   1.405       .  A
C889        C894   1.405       .  A
C889        F907   1.358       .  S
C890        C895   1.490       .  S
C890        C891   1.401       .  A
C891        C892   1.399       .  A
C891        F896   1.358       .  S
C892        C893   1.419       .  A
C892        F908   1.358       .  S
C893        C894   1.419       .  A
C894        F897   1.354       .  S
C895        C898   1.409       .  A
C895        C902   1.404       .  A
C898        C899   1.408       .  A
C898        F903   1.358       .  S
C899        C900   1.409       .  A
C899        F905   1.357       .  S
C900        C901   1.410       .  A
C901        C902   1.397       .  A
C901        F904   1.358       .  S
C902        F906   1.358       .  S
C909        C910   1.408       .  A
C909        C914   1.408       .  A
C909        F927   1.357       .  S
C910        C915   1.491       .  S
C910        C911   1.408       .  A
C911        C912   1.397       .  A
C911        F916   1.358       .  S
C912        C913   1.407       .  A
C912        F928   1.358       .  S
C913        C914   1.409       .  A
C914        F917   1.357   1_655  S
C915        C918   1.403       .  A
C915        C922   1.410       .  A
C918        C919   1.395       .  A
C918        F923   1.358       .  S
C919        C920   1.412       .  A
C919        F925   1.358       .  S
C920        C921   1.406       .  A
C921        C922   1.408       .  A
C921        F924   1.355       .  S
C922        F926   1.357       .  S
C929        C930   1.402       .  A
C929        C934   1.399       .  A
C929        F947   1.358       .  S
C930        C935   1.487       .  S
C930        C931   1.404       .  A
C931        C932   1.405       .  A
C931        F936   1.358       .  S
C932        C933   1.417       .  A
C932        F948   1.357       .  S
C933        C934   1.418       .  A
C934        F937   1.356       .  S
C935        C938   1.405   1_554  A
C935        C942   1.407       .  A
C938        C939   1.401       .  A
C938        F943   1.358       .  S
C939        C940   1.409       .  A
C939        F945   1.358       .  S
C940        C941   1.409   1_556  A
C941        C942   1.404       .  A
C941        F944   1.358       .  S
C942        F946   1.358       .  S
C949        C950   1.408       .  A
C949        C954   1.408       .  A
C949        F967   1.358       .  S
C950        C955   1.491       .  S
C950        C951   1.407       .  A
C951        C952   1.398       .  A
C951        F956   1.358       .  S
C952        C953   1.405       .  A
C952        F968   1.357       .  S
C953        C954   1.407       .  A
C954        F957   1.354       .  S
C955        C958   1.404       .  A
C955        C962   1.409       .  A
C958        C959   1.394       .  A
C958        F963   1.359       .  S
C959        C960   1.410   1_655  A
C959        F965   1.358   1_554  S
C960        C961   1.412       .  A
C961        C962   1.412   1_455  A
C961        F964   1.357       .  S
C962        F966   1.357       .  S
C969        C970   1.406       .  A
C969        C974   1.405       .  A
C969        F987   1.358       .  S
C970        C975   1.484       .  S
C970        C971   1.403       .  A
C971        C972   1.397   1_554  A
C971        F976   1.359       .  S
C972        C973   1.413       .  A
C972        F988   1.358       .  S
C973        C974   1.412   1_556  A
C974        F977   1.357       .  S
C975        C978   1.402       .  A
C975        C982   1.407       .  A
C978        C979   1.395       .  A
C978        F983   1.358       .  S
C979        C980   1.409       .  A
C979        F985   1.353       .  S
C980        C981   1.409       .  A
C981        C982   1.403       .  A
C981        F984   1.356       .  S
C982        F986   1.358       .  S
C989        C990   1.406       .  A
C989        C994   1.403       .  A
C989       F1007   1.358       .  S
C990        C995   1.482       .  S
C990        C991   1.408       .  A
C991        C992   1.395       .  A
C991        F996   1.358       .  S
C992        C993   1.401       .  A
C992       F1008   1.358       .  S
C993        C994   1.407       .  A
C994        F997   1.358       .  S
C995        C998   1.406       .  A
C995       C1002   1.397       .  A
C998        C999   1.410       .  A
C998       F1003   1.357       .  S
C999       C1000   1.414       .  A
C999       F1005   1.348       .  S
C1000      C1001   1.418       .  A
C1001      C1002   1.386       .  A
C1001      F1004   1.357       .  S
C1002      F1006   1.359       .  S
C1009      C1010   1.403       .  A
C1009      C1014   1.392       .  A
C1009      F1027   1.358       .  S
C1010      C1015   1.483       .  S
C1010      C1011   1.407       .  A
C1011      C1012   1.405       .  A
C1011      F1016   1.358       .  S
C1012      C1013   1.405       .  A
C1012      F1028   1.347       .  S
C1013      C1014   1.409       .  A
C1014      F1017   1.356       .  S
C1015      C1018   1.405       .  A
C1015      C1022   1.407       .  A
C1018      C1019   1.397   1_554  A
C1018      F1023   1.358   1_554  S
C1019      C1020   1.405       .  A
C1019      F1025   1.358       .  S
C1020      C1021   1.407   1_556  A
C1021      C1022   1.403       .  A
C1021      F1024   1.358       .  S
C1022      F1026   1.358       .  S
C1029      C1030   1.404       .  A
C1029      C1034   1.406       .  A
C1029      F1047   1.357       .  S
C1030      C1035   1.479       .  S
C1030      C1031   1.401       .  A
C1031      C1032   1.393       .  A
C1031      F1036   1.359       .  S
C1032      C1033   1.414   1_554  A
C1032      F1048   1.358   1_554  S
C1033      C1034   1.414   1_556  A
C1034      F1037   1.357   1_554  S
C1035      C1038   1.402       .  A
C1035      C1042   1.403       .  A
C1038      C1039   1.399       .  A
C1038      F1043   1.358       .  S
C1039      C1040   1.412       .  A
C1039      F1045   1.355       .  S
C1040      C1041   1.411       .  A
C1041      C1042   1.400       .  A
C1041      F1044   1.358       .  S
C1042      F1046   1.358       .  S
C1049      C1050   1.407       .  A
C1049      C1054   1.407   1_545  A
C1049      F1067   1.358       .  S
C1050      C1055   1.487       .  S
C1050      C1051   1.407       .  A
C1051      C1052   1.397   1_655  A
C1051      F1056   1.358       .  S
C1052      C1053   1.403   1_545  A
C1052      F1068   1.358       .  S
C1053      C1054   1.409   1_455  A
C1054      F1057   1.358       .  S
C1055      C1058   1.407       .  A
C1055      C1062   1.399       .  A
C1058      C1059   1.411       .  A
C1058      F1063   1.357       .  S
C1059      C1060   1.416       .  A
C1059      F1065   1.351       .  S
C1060      C1061   1.418       .  A
C1061      C1062   1.389       .  A
C1061      F1064   1.359       .  S
C1062      F1066   1.359       .  S
C1069      C1070   1.406       .  A
C1069      C1074   1.396       .  A
C1069      F1087   1.358       .  S
C1070      C1075   1.485       .  S
C1070      C1071   1.405       .  A
C1071      C1072   1.402       .  A
C1071      F1076   1.358       .  S
C1072      C1073   1.407       .  A
C1072      F1088   1.351       .  S
C1073      C1074   1.406       .  A
C1074      F1077   1.357       .  S
C1075      C1078   1.406       .  A
C1075      C1082   1.406       .  A
C1078      C1079   1.396   1_545  A
C1078      F1083   1.358       .  S
C1079      C1080   1.408   1_554  A
C1079      F1085   1.358       .  S
C1080      C1081   1.410   1_565  A
C1081      C1082   1.404   1_556  A
C1081      F1084   1.357       .  S
C1082      F1086   1.358       .  S
C1089      C1090   1.407       .  A
C1089      C1094   1.400       .  A
C1089      F1107   1.358       .  S
C1090      C1095   1.490       .  S
C1090      C1091   1.406       .  A
C1091      C1092   1.405       .  A
C1091      F1096   1.358       .  S
C1092      C1093   1.403       .  A
C1092      F1108   1.349       .  S
C1093      C1094   1.406       .  A
C1094      F1097   1.357       .  S
C1095      C1098   1.408       .  A
C1095      C1102   1.405       .  A
C1098      C1099   1.409       .  A
C1098      F1103   1.357       .  S
C1099      C1100   1.412       .  A
C1099      F1105   1.358   1_545  S
C1100      C1101   1.409       .  A
C1101      C1102   1.397       .  A
C1101      F1104   1.358       .  S
C1102      F1106   1.358       .  S
C1109      C1110   1.402       .  A
C1109      C1114   1.396       .  A
C1109      F1127   1.359       .  S
C1110      C1115   1.478       .  S
C1110      C1111   1.404       .  A
C1111      C1112   1.404       .  A
C1111      F1116   1.357       .  S
C1112      C1113   1.409       .  A
C1112      F1128   1.357       .  S
C1113      C1114   1.410       .  A
C1114      F1117   1.358       .  S
C1115      C1118   1.400       .  A
C1115      C1122   1.402       .  A
C1118      C1119   1.398       .  A
C1118      F1123   1.358       .  S
C1119      C1120   1.416       .  A
C1119      F1125   1.356       .  S
C1120      C1121   1.415       .  A
C1121      C1122   1.400       .  A
C1121      F1124   1.358       .  S
C1122      F1126   1.358       .  S
C1129      C1130   1.403       .  A
C1129      C1134   1.395       .  A
C1129      F1147   1.358       .  S
C1130      C1135   1.486       .  S
C1130      C1131   1.408       .  A
C1131      C1132   1.405       .  A
C1131      F1136   1.357       .  S
C1132      C1133   1.407       .  A
C1132      F1148   1.356       .  S
C1133      C1134   1.411       .  A
C1134      F1137   1.357       .  S
C1135      C1138   1.406       .  A
C1135      C1142   1.405       .  A
C1138      C1139   1.404   1_545  A
C1138      F1143   1.358       .  S
C1139      C1140   1.412       .  A
C1139      F1145   1.357       .  S
C1140      C1141   1.411       .  A
C1141      C1142   1.398   1_565  A
C1141      F1144   1.358       .  S
C1142      F1146   1.358       .  S
C1149      C1150   1.407       .  A
C1149      C1154   1.405       .  A
C1149      F1167   1.357       .  S
C1150      C1155   1.480       .  S
C1150      C1151   1.405       .  A
C1151      C1152   1.394       .  A
C1151      F1156   1.358       .  S
C1152      C1153   1.404       .  A
C1152      F1168   1.358       .  S
C1153      C1154   1.401       .  A
C1154      F1157   1.353       .  S
C1155      C1158   1.406       .  A
C1155      C1162   1.406       .  A
C1158      C1159   1.400   1_545  A
C1158      F1163   1.358   1_545  S
C1159      C1160   1.403       .  A
C1159      F1165   1.358       .  S
C1160      C1161   1.403   1_565  A
C1161      C1162   1.400       .  A
C1161      F1164   1.358   1_554  S
C1162      F1166   1.358       .  S
C1169      C1170   1.411       .  A
C1169      C1174   1.406       .  A
C1169      F1187   1.358       .  S
C1170      C1175   1.491       .  S
C1170      C1171   1.405       .  A
C1171      C1172   1.396       .  A
C1171      F1176   1.358       .  S
C1172      C1173   1.410       .  A
C1172      F1188   1.358       .  S
C1173      C1174   1.404       .  A
C1174      F1177   1.357       .  S
C1175      C1178   1.409       .  A
C1175      C1182   1.405       .  A
C1178      C1179   1.407   1_545  A
C1178      F1183   1.358       .  S
C1179      C1180   1.411       .  A
C1179      F1185   1.357       .  S
C1180      C1181   1.413       .  A
C1181      C1182   1.396   1_565  A
C1181      F1184   1.358       .  S
C1182      F1186   1.358       .  S
C1189      C1190   1.402       .  A
C1189      C1194   1.403       .  A
C1189      F1207   1.358       .  S
C1190      C1195   1.479       .  S
C1190      C1191   1.399       .  A
C1191      C1192   1.393       .  A
C1191      F1196   1.359       .  S
C1192      C1193   1.417       .  A
C1192      F1208   1.358       .  S
C1193      C1194   1.417       .  A
C1194      F1197   1.353       .  S
C1195      C1198   1.405       .  A
C1195      C1202   1.405       .  A
C1198      C1199   1.395   1_554  A
C1198      F1203   1.358       .  S
C1199      C1200   1.405       .  A
C1199      F1205   1.358       .  S
C1200      C1201   1.408   1_556  A
C1201      C1202   1.403       .  A
C1201      F1204   1.358       .  S
C1202      F1206   1.358       .  S
C1209      C1210   1.405       .  A
C1209      C1214   1.406       .  A
C1209      F1227   1.358       .  S
C1210      C1215   1.488       .  S
C1210      C1211   1.401       .  A
C1211      C1212   1.398       .  A
C1211      F1216   1.358       .  S
C1212      C1213   1.417       .  A
C1212      F1228   1.358       .  S
C1213      C1214   1.415       .  A
C1214      F1217   1.355       .  S
C1215      C1218   1.405       .  A
C1215      C1222   1.406       .  A
C1218      C1219   1.401       .  A
C1218      F1223   1.358       .  S
C1219      C1220   1.410       .  A
C1219      F1225   1.358       .  S
C1220      C1221   1.411       .  A
C1221      C1222   1.405       .  A
C1221      F1224   1.358       .  S
C1222      F1226   1.358       .  S
C1229      C1230   1.401       .  A
C1229      C1234   1.397       .  A
C1229      F1247   1.358       .  S
C1230      C1235   1.480       .  S
C1230      C1231   1.402       .  A
C1231      C1232   1.401       .  A
C1231      F1236   1.357       .  S
C1232      C1233   1.415       .  A
C1232      F1248   1.356       .  S
C1233      C1234   1.413       .  A
C1234      F1237   1.351       .  S
C1235      C1238   1.404       .  A
C1235      C1242   1.405       .  A
C1238      C1239   1.405       .  A
C1238      F1243   1.358       .  S
C1239      C1240   1.413       .  A
C1239      F1245   1.358       .  S
C1240      C1241   1.407       .  A
C1241      C1242   1.395       .  A
C1241      F1244   1.358       .  S
C1242      F1246   1.359       .  S
C1249      C1250   1.407       .  A
C1249      C1254   1.398       .  A
C1249      F1267   1.358       .  S
C1250      C1255   1.484       .  S
C1250      C1251   1.407       .  A
C1251      C1252   1.404       .  A
C1251      F1256   1.357       .  S
C1252      C1253   1.404       .  A
C1252      F1268   1.358       .  S
C1253      C1254   1.403       .  A
C1254      F1257   1.359       .  S
C1255      C1258   1.403       .  A
C1255      C1262   1.405       .  A
C1258      C1259   1.396       .  A
C1258      F1263   1.358       .  S
C1259      C1260   1.410       .  A
C1259      F1265   1.358       .  S
C1260      C1261   1.408       .  A
C1261      C1262   1.405       .  A
C1261      F1264   1.350       .  S
C1262      F1266   1.358       .  S
C1269      C1270   1.406       .  A
C1269      C1274   1.398       .  A
C1269      F1287   1.358       .  S
C1270      C1275   1.483       .  S
C1270      C1271   1.407       .  A
C1271      C1272   1.405       .  A
C1271      F1276   1.358       .  S
C1272      C1273   1.407       .  A
C1272      F1288   1.358       .  S
C1273      C1274   1.401       .  A
C1274      F1277   1.358       .  S
C1275      C1278   1.406       .  A
C1275      C1282   1.405       .  A
C1278      C1279   1.402       .  A
C1278      F1283   1.358       .  S
C1279      C1280   1.400       .  A
C1279      F1285   1.352       .  S
C1280      C1281   1.407       .  A
C1281      C1282   1.401       .  A
C1281      F1284   1.357       .  S
C1282      F1286   1.358       .  S
C1289      C1290   1.402       .  A
C1289      C1294   1.402       .  A
C1289      F1307   1.358       .  S
C1290      C1295   1.470       .  S
C1290      C1291   1.400       .  A
C1291      C1292   1.393       .  A
C1291      F1296   1.358       .  S
C1292      C1293   1.410       .  A
C1292      F1308   1.358       .  S
C1293      C1294   1.412       .  A
C1294      F1297   1.357       .  S
C1295      C1298   1.401       .  A
C1295      C1302   1.398       .  A
C1298      C1299   1.400       .  A
C1298      F1303   1.358       .  S
C1299      C1300   1.416       .  A
C1299      F1305   1.356       .  S
C1300      C1301   1.416       .  A
C1301      C1302   1.394       .  A
C1301      F1304   1.358       .  S
C1302      F1306   1.358       .  S
C1309      C1310   1.405       .  A
C1309      C1314   1.406       .  A
C1309      F1327   1.358       .  S
C1310      C1315   1.483       .  S
C1310      C1311   1.402       .  A
C1311      C1312   1.395       .  A
C1311      F1316   1.358       .  S
C1312      C1313   1.411       .  A
C1312      F1328   1.358       .  S
C1313      C1314   1.413       .  A
C1314      F1317   1.358       .  S
C1315      C1318   1.403       .  A
C1315      C1322   1.401       .  A
C1318      C1319   1.403       .  A
C1318      F1323   1.358       .  S
C1319      C1320   1.417       .  A
C1319      F1325   1.358       .  S
C1320      C1321   1.417       .  A
C1321      C1322   1.398       .  A
C1321      F1324   1.356       .  S
C1322      F1326   1.358       .  S
C1329      C1330   1.408       .  A
C1329      C1334   1.411       .  A
C1329      F1347   1.358       .  S
C1330      C1335   1.493       .  S
C1330      C1331   1.405       .  A
C1331      C1332   1.398       .  A
C1331      F1336   1.358       .  S
C1332      C1333   1.412       .  A
C1332      F1348   1.358       .  S
C1333      C1334   1.412       .  A
C1334      F1337   1.357       .  S
C1335      C1338   1.408       .  A
C1335      C1342   1.404       .  A
C1338      C1339   1.404       .  A
C1338      F1343   1.358       .  S
C1339      C1340   1.407       .  A
C1339      F1345   1.354       .  S
C1340      C1341   1.410       .  A
C1341      C1342   1.403       .  A
C1341      F1344   1.354       .  S
C1342      F1346   1.358       .  S
C1349      C1350   1.405       .  A
C1349      C1354   1.404       .  A
C1349      F1367   1.358       .  S
C1350      C1355   1.482       .  S
C1350      C1351   1.405       .  A
C1351      C1352   1.397       .  A
C1351      F1356   1.358       .  S
C1352      C1353   1.407       .  A
C1352      F1368   1.358       .  S
C1353      C1354   1.411       .  A
C1354      F1357   1.358       .  S
C1355      C1358   1.403       .  A
C1355      C1362   1.402       .  A
C1358      C1359   1.400       .  A
C1358      F1363   1.358       .  S
C1359      C1360   1.415       .  A
C1359      F1365   1.358       .  S
C1360      C1361   1.417       .  A
C1361      C1362   1.398       .  A
C1361      F1364   1.355       .  S
C1362      F1366   1.358       .  S
C1369      C1370   1.404       .  A
C1369      C1374   1.398       .  A
C1369      F1387   1.358       .  S
C1370      C1375   1.487       .  S
C1370      C1371   1.405       .  A
C1371      C1372   1.405       .  A
C1371      F1376   1.358       .  S
C1372      C1373   1.414       .  A
C1372      F1388   1.357       .  S
C1373      C1374   1.413       .  A
C1374      F1377   1.358       .  S
C1375      C1378   1.405       .  A
C1375      C1382   1.403       .  A
C1378      C1379   1.403       .  A
C1378      F1383   1.358       .  S
C1379      C1380   1.410       .  A
C1379      F1385   1.354       .  S
C1380      C1381   1.410       .  A
C1381      C1382   1.399       .  A
C1381      F1384   1.353       .  S
C1382      F1386   1.358       .  S
C1389      C1390   1.407       .  A
C1389      C1394   1.404       .  A
C1389      F1407   1.358       .  S
C1390      C1395   1.485       .  S
C1390      C1391   1.403       .  A
C1391      C1392   1.395       .  A
C1391      F1396   1.358       .  S
C1392      C1393   1.410       .  A
C1392      F1408   1.356       .  S
C1393      C1394   1.410       .  A
C1394      F1397   1.355       .  S
C1395      C1398   1.405       .  A
C1395      C1402   1.406       .  A
C1398      C1399   1.397       .  A
C1398      F1403   1.358       .  S
C1399      C1400   1.412       .  A
C1399      F1405   1.358       .  S
C1400      C1401   1.411       .  A
C1401      C1402   1.403       .  A
C1401      F1404   1.357       .  S
C1402      F1406   1.358       .  S
C1409      C1410   1.398       .  A
C1409      C1414   1.392       .  A
C1409      F1427   1.359       .  S
C1410      C1415   1.478       .  S
C1410      C1411   1.403       .  A
C1411      C1412   1.405       .  A
C1411      F1416   1.358       .  S
C1412      C1413   1.412       .  A
C1412      F1428   1.350       .  S
C1413      C1414   1.417       .  A
C1414      F1417   1.357       .  S
C1415      C1418   1.403       .  A
C1415      C1422   1.404       .  A
C1418      C1419   1.397       .  A
C1418      F1423   1.358       .  S
C1419      C1420   1.409       .  A
C1419      F1425   1.358       .  S
C1420      C1421   1.408       .  A
C1421      C1422   1.402       .  A
C1421      F1424   1.357       .  S
C1422      F1426   1.358       .  S
C1429      C1430   1.403       .  A
C1429      C1434   1.398       .  A
C1429      F1447   1.358       .  S
C1430      C1435   1.480       .  S
C1430      C1431   1.406       .  A
C1431      C1432   1.400       .  A
C1431      F1436   1.358       .  S
C1432      C1433   1.406       .  A
C1432      F1448   1.356       .  S
C1433      C1434   1.408       .  A
C1434      F1437   1.358       .  S
C1435      C1438   1.403       .  A
C1435      C1442   1.403       .  A
C1438      C1439   1.396       .  A
C1438      F1443   1.359       .  S
C1439      C1440   1.412       .  A
C1439      F1445   1.358       .  S
C1440      C1441   1.415       .  A
C1441      C1442   1.404       .  A
C1441      F1444   1.357       .  S
C1442      F1446   1.358       .  S
C1449      C1450   1.401       .  A
C1449      C1454   1.403       .  A
C1449      F1467   1.358       .  S
C1450      C1455   1.482       .  S
C1450      C1451   1.400       .  A
C1451      C1452   1.401       .  A
C1451      F1456   1.358       .  S
C1452      C1453   1.415       .  A
C1452      F1468   1.355       .  S
C1453      C1454   1.420       .  A
C1454      F1457   1.354       .  S
C1455      C1458   1.404       .  A
C1455      C1462   1.405       .  A
C1458      C1459   1.397       .  A
C1458      F1463   1.358       .  S
C1459      C1460   1.407   1_655  A
C1459      F1465   1.358       .  S
C1460      C1461   1.411       .  A
C1461      C1462   1.405   1_455  A
C1461      F1464   1.358       .  S
C1462      F1466   1.357       .  S
C1469      C1470   1.404       .  A
C1469      C1474   1.397       .  A
C1469      F1487   1.358       .  S
C1470      C1475   1.478       .  S
C1470      C1471   1.405       .  A
C1471      C1472   1.397       .  A
C1471      F1476   1.358       .  S
C1472      C1473   1.404       .  A
C1472      F1488   1.354       .  S
C1473      C1474   1.404       .  A
C1474      F1477   1.356       .  S
C1475      C1478   1.404       .  A
C1475      C1482   1.404       .  A
C1478      C1479   1.404       .  A
C1478      F1483   1.358       .  S
C1479      C1480   1.412       .  A
C1479      F1485   1.357       .  S
C1480      C1481   1.409       .  A
C1481      C1482   1.392       .  A
C1481      F1484   1.358   1_655  S
C1482      F1486   1.359       .  S
C1489      C1490   1.403       .  A
C1489      C1494   1.404       .  A
C1489      F1507   1.358       .  S
C1490      C1495   1.479       .  S
C1490      C1491   1.398       .  A
C1491      C1492   1.394       .  A
C1491      F1496   1.358       .  S
C1492      C1493   1.416       .  A
C1492      F1508   1.357       .  S
C1493      C1494   1.418       .  A
C1494      F1497   1.354       .  S
C1495      C1498   1.401       .  A
C1495      C1502   1.404       .  A
C1498      C1499   1.403       .  A
C1498      F1503   1.358       .  S
C1499      C1500   1.415       .  A
C1499      F1505   1.358       .  S
C1500      C1501   1.410       .  A
C1501      C1502   1.397       .  A
C1501      F1504   1.358       .  S
C1502      F1506   1.358       .  S
C1509      C1510   1.401       .  A
C1509      C1514   1.401       .  A
C1509      F1527   1.358       .  S
C1510      C1515   1.478       .  S
C1510      C1511   1.400       .  A
C1511      C1512   1.398       .  A
C1511      F1516   1.358       .  S
C1512      C1513   1.418       .  A
C1512      F1528   1.356       .  S
C1513      C1514   1.416       .  A
C1514      F1517   1.356       .  S
C1515      C1518   1.400       .  A
C1515      C1522   1.403       .  A
C1518      C1519   1.394   1_655  A
C1518      F1523   1.359       .  S
C1519      C1520   1.412       .  A
C1519      F1525   1.358       .  S
C1520      C1521   1.414       .  A
C1521      C1522   1.406   1_455  A
C1521      F1524   1.357       .  S
C1522      F1526   1.357       .  S
C1529      C1530   1.412       .  A
C1529      C1534   1.403       .  A
C1529      F1547   1.357       .  S
C1530      C1535   1.493       .  S
C1530      C1531   1.408       .  A
C1531      C1532   1.399       .  A
C1531      F1536   1.358       .  S
C1532      C1533   1.406       .  A
C1532      F1548   1.358       .  S
C1533      C1534   1.404       .  A
C1534      F1537   1.358       .  S
C1535      C1538   1.409       .  A
C1535      C1542   1.407       .  A
C1538      C1539   1.397       .  A
C1538      F1543   1.358       .  S
C1539      C1540   1.407       .  A
C1539      F1545   1.358       .  S
C1540      C1541   1.407       .  A
C1541      C1542   1.404       .  A
C1541      F1544   1.347       .  S
C1542      F1546   1.358       .  S
C1549      C1550   1.404       .  A
C1549      C1554   1.400       .  A
C1549      F1567   1.358       .  S
C1550      C1555   1.492       .  S
C1550      C1551   1.410       .  A
C1551      C1552   1.406       .  A
C1551      F1556   1.357       .  S
C1552      C1553   1.405       .  A
C1552      F1568   1.356       .  S
C1553      C1554   1.411       .  A
C1554      F1557   1.358       .  S
C1555      C1558   1.404       .  A
C1555      C1562   1.408       .  A
C1558      C1559   1.397       .  A
C1558      F1563   1.359       .  S
C1559      C1560   1.414       .  A
C1559      F1565   1.358       .  S
C1560      C1561   1.412       .  A
C1561      C1562   1.410       .  A
C1561      F1564   1.357       .  S
C1562      F1566   1.357       .  S
C1569      C1570   1.404       .  A
C1569      C1574   1.402       .  A
C1569      F1587   1.358       .  S
C1570      C1575   1.477       .  S
C1570      C1571   1.406       .  A
C1571      C1572   1.396       .  A
C1571      F1576   1.358       .  S
C1572      C1573   1.402       .  A
C1572      F1588   1.358       .  S
C1573      C1574   1.406       .  A
C1574      F1577   1.358       .  S
C1575      C1578   1.398       .  A
C1575      C1582   1.401       .  A
C1578      C1579   1.389       .  A
C1578      F1583   1.359       .  S
C1579      C1580   1.417       .  A
C1579      F1585   1.359       .  S
C1580      C1581   1.421       .  A
C1581      C1582   1.406       .  A
C1581      F1584   1.350       .  S
C1582      F1586   1.358       .  S
C1589      C1590   1.403       .  A
C1589      C1594   1.396       .  A
C1589      F1607   1.358       .  S
C1590      C1595   1.486       .  S
C1590      C1591   1.405       .  A
C1591      C1592   1.403       .  A
C1591      F1596   1.358       .  S
C1592      C1593   1.415       .  A
C1592      F1608   1.355       .  S
C1593      C1594   1.413       .  A
C1594      F1597   1.357       .  S
C1595      C1598   1.407       .  A
C1595      C1602   1.405       .  A
C1598      C1599   1.405       .  A
C1598      F1603   1.357       .  S
C1599      C1600   1.408       .  A
C1599      F1605   1.357       .  S
C1600      C1601   1.410       .  A
C1601      C1602   1.397       .  A
C1601      F1604   1.358   1_655  S
C1602      F1606   1.358       .  S
C1609      C1610   1.405       .  A
C1609      C1614   1.403       .  A
C1609      F1627   1.358       .  S
C1610      C1615   1.489       .  S
C1610      C1611   1.407       .  A
C1611      C1612   1.397       .  A
C1611      F1616   1.358       .  S
C1612      C1613   1.411   1_655  A
C1612      F1628   1.358       .  S
C1613      C1614   1.414   1_455  A
C1614      F1617   1.358   1_655  S
C1615      C1618   1.406       .  A
C1615      C1622   1.407       .  A
C1618      C1619   1.399       .  A
C1618      F1623   1.358       .  S
C1619      C1620   1.407       .  A
C1619      F1625   1.353       .  S
C1620      C1621   1.405       .  A
C1621      C1622   1.402       .  A
C1621      F1624   1.354       .  S
C1622      F1626   1.358       .  S
C1629      C1630   1.403       .  A
C1629      C1634   1.397       .  A
C1629      F1647   1.358       .  S
C1630      C1635   1.485       .  S
C1630      C1631   1.406       .  A
C1631      C1632   1.404       .  A
C1631      F1636   1.358       .  S
C1632      C1633   1.409       .  A
C1632      F1648   1.355       .  S
C1633      C1634   1.411       .  A
C1634      F1637   1.358       .  S
C1635      C1638   1.404       .  A
C1635      C1642   1.404       .  A
C1638      C1639   1.404   1_655  A
C1638      F1643   1.358       .  S
C1639      C1640   1.414       .  A
C1639      F1645   1.357       .  S
C1640      C1641   1.413       .  A
C1641      C1642   1.398   1_455  A
C1641      F1644   1.358       .  S
C1642      F1646   1.358       .  S
C1649      C1650   1.402       .  A
C1649      C1654   1.394       .  A
C1649      F1667   1.358       .  S
C1650      C1655   1.481       .  S
C1650      C1651   1.403       .  A
C1651      C1652   1.399       .  A
C1651      F1656   1.358       .  S
C1652      C1653   1.416       .  A
C1652      F1668   1.355       .  S
C1653      C1654   1.415       .  A
C1654      F1657   1.357       .  S
C1655      C1658   1.407       .  A
C1655      C1662   1.405       .  A
C1658      C1659   1.401       .  A
C1658      F1663   1.358       .  S
C1659      C1660   1.405       .  A
C1659      F1665   1.357       .  S
C1660      C1661   1.408       .  A
C1661      C1662   1.396       .  A
C1661      F1664   1.359       .  S
C1662      F1666   1.359       .  S
C1669      C1670   1.406       .  A
C1669      C1674   1.398       .  A
C1669      F1687   1.358       .  S
C1670      C1675   1.478       .  S
C1670      C1671   1.405       .  A
C1671      C1672   1.402       .  A
C1671      F1676   1.358       .  S
C1672      C1673   1.406       .  A
C1672      F1688   1.358   1_655  S
C1673      C1674   1.404       .  A
C1674      F1677   1.358       .  S
C1675      C1678   1.404       .  A
C1675      C1682   1.405       .  A
C1678      C1679   1.401       .  A
C1678      F1683   1.357       .  S
C1679      C1680   1.404       .  A
C1679      F1685   1.354       .  S
C1680      C1681   1.403       .  A
C1681      C1682   1.397       .  A
C1681      F1684   1.355       .  S
C1682      F1686   1.358       .  S
C1689      C1690   1.407       .  A
C1689      C1694   1.394       .  A
C1689      F1707   1.359       .  S
C1690      C1695   1.493       .  S
C1690      C1691   1.410       .  A
C1691      C1692   1.410       .  A
C1691      F1696   1.357       .  S
C1692      C1693   1.408       .  A
C1692      F1708   1.357       .  S
C1693      C1694   1.406       .  A
C1694      F1697   1.359       .  S
C1695      C1698   1.409       .  A
C1695      C1702   1.407       .  A
C1698      C1699   1.407       .  A
C1698      F1703   1.357       .  S
C1699      C1700   1.407       .  A
C1699      F1705   1.354       .  S
C1700      C1701   1.408       .  A
C1701      C1702   1.396       .  A
C1701      F1704   1.358       .  S
C1702      F1706   1.358       .  S
C1709      C1710   1.398       .  A
C1709      C1714   1.393       .  A
C1709      F1727   1.358       .  S
C1710      C1715   1.471       .  S
C1710      C1711   1.402       .  A
C1711      C1712   1.399       .  A
C1711      F1716   1.358       .  S
C1712      C1713   1.414       .  A
C1712      F1728   1.357       .  S
C1713      C1714   1.418       .  A
C1714      F1717   1.357       .  S
C1715      C1718   1.399       .  A
C1715      C1722   1.404       .  A
C1718      C1719   1.390       .  A
C1718      F1723   1.359       .  S
C1719      C1720   1.411       .  A
C1719      F1725   1.359       .  S
C1720      C1721   1.409       .  A
C1721      C1722   1.403       .  A
C1721      F1724   1.357       .  S
C1722      F1726   1.357       .  S
C1729      C1730   1.406       .  A
C1729      C1734   1.402       .  A
C1729      F1747   1.358       .  S
C1730      C1735   1.489       .  S
C1730      C1731   1.406       .  A
C1731      C1732   1.403       .  A
C1731      F1736   1.357       .  S
C1732      C1733   1.412       .  A
C1732      F1748   1.357       .  S
C1733      C1734   1.411       .  A
C1734      F1737   1.358       .  S
C1735      C1738   1.410       .  A
C1735      C1742   1.404       .  A
C1738      C1739   1.407       .  A
C1738      F1743   1.357       .  S
C1739      C1740   1.406       .  A
C1739      F1745   1.356       .  S
C1740      C1741   1.407       .  A
C1741      C1742   1.395       .  A
C1741      F1744   1.356       .  S
C1742      F1746   1.358       .  S
C1749      C1750   1.402       .  A
C1749      C1754   1.401       .  A
C1749      F1767   1.358       .  S
C1750      C1755   1.473       .  S
C1750      C1751   1.402       .  A
C1751      C1752   1.396       .  A
C1751      F1756   1.358       .  S
C1752      C1753   1.408       .  A
C1752      F1768   1.358       .  S
C1753      C1754   1.411       .  A
C1754      F1757   1.358       .  S
C1755      C1758   1.399       .  A
C1755      C1762   1.400       .  A
C1758      C1759   1.398       .  A
C1758      F1763   1.358       .  S
C1759      C1760   1.416       .  A
C1759      F1765   1.358       .  S
C1760      C1761   1.418       .  A
C1761      C1762   1.399       .  A
C1761      F1764   1.355       .  S
C1762      F1766   1.358       .  S
C1769      C1770   1.400       .  A
C1769      C1774   1.395       .  A
C1769      F1787   1.359       .  S
C1770      C1775   1.484       .  S
C1770      C1771   1.405       .  A
C1771      C1772   1.406       .  A
C1771      F1776   1.357       .  S
C1772      C1773   1.410       .  A
C1772      F1788   1.354       .  S
C1773      C1774   1.417       .  A
C1774      F1777   1.357       .  S
C1775      C1778   1.404       .  A
C1775      C1782   1.404       .  A
C1778      C1779   1.402       .  A
C1778      F1783   1.358       .  S
C1779      C1780   1.412       .  A
C1779      F1785   1.357       .  S
C1780      C1781   1.415       .  A
C1781      C1782   1.401       .  A
C1781      F1784   1.358       .  S
C1782      F1786   1.358       .  S
C1789      C1790   1.405       .  A
C1789      C1794   1.392       .  A
C1789      F1807   1.358       .  S
C1790      C1795   1.482       .  S
C1790      C1791   1.408       .  A
C1791      C1792   1.405       .  A
C1791      F1796   1.357       .  S
C1792      C1793   1.400       .  A
C1792      F1808   1.352       .  S
C1793      C1794   1.406       .  A
C1794      F1797   1.359       .  S
C1795      C1798   1.404       .  A
C1795      C1802   1.408       .  A
C1798      C1799   1.396       .  A
C1798      F1803   1.358       .  S
C1799      C1800   1.404       .  A
C1799      F1805   1.358       .  S
C1800      C1801   1.405       .  A
C1801      C1802   1.405       .  A
C1801      F1804   1.358       .  S
C1802      F1806   1.358       .  S
C1809      C1810   1.405       .  A
C1809      C1814   1.398       .  A
C1809      F1827   1.357       .  S
C1810      C1815   1.488       .  S
C1810      C1811   1.406       .  A
C1811      C1812   1.401       .  A
C1811      F1816   1.358       .  S
C1812      C1813   1.414       .  A
C1812      F1828   1.358       .  S
C1813      C1814   1.414       .  A
C1814      F1817   1.357       .  S
C1815      C1818   1.406       .  A
C1815      C1822   1.408       .  A
C1818      C1819   1.402       .  A
C1818      F1823   1.358       .  S
C1819      C1820   1.411       .  A
C1819      F1825   1.358       .  S
C1820      C1821   1.407       .  A
C1821      C1822   1.398       .  A
C1821      F1824   1.358       .  S
C1822      F1826   1.358       .  S
C1829      C1830   1.404       .  A
C1829      C1834   1.400       .  A
C1829      F1847   1.358       .  S
C1830      C1835   1.480       .  S
C1830      C1831   1.402       .  A
C1831      C1832   1.397       .  A
C1831      F1836   1.358       .  S
C1832      C1833   1.411       .  A
C1832      F1848   1.358       .  S
C1833      C1834   1.409       .  A
C1834      F1837   1.355       .  S
C1835      C1838   1.403       .  A
C1835      C1842   1.404       .  A
C1838      C1839   1.394       .  A
C1838      F1843   1.359       .  S
C1839      C1840   1.412       .  A
C1839      F1845   1.358       .  S
C1840      C1841   1.413       .  A
C1841      C1842   1.404       .  A
C1841      F1844   1.357       .  S
C1842      F1846   1.357       .  S
C1849      C1850   1.406       .  A
C1849      C1854   1.407       .  A
C1849      F1867   1.357       .  S
C1850      C1855   1.479       .  S
C1850      C1851   1.402       .  A
C1851      C1852   1.394       .  A
C1851      F1856   1.358       .  S
C1852      C1853   1.406       .  A
C1852      F1868   1.358       .  S
C1853      C1854   1.410       .  A
C1854      F1857   1.358       .  S
C1855      C1858   1.404       .  A
C1855      C1862   1.404       .  A
C1858      C1859   1.398       .  A
C1858      F1863   1.358       .  S
C1859      C1860   1.405       .  A
C1859      F1865   1.356       .  S
C1860      C1861   1.403       .  A
C1861      C1862   1.403       .  A
C1861      F1864   1.352       .  S
C1862      F1866   1.357       .  S
C1869      C1870   1.407       .  A
C1869      C1874   1.403       .  A
C1869      F1887   1.358       .  S
C1870      C1875   1.489       .  S
C1870      C1871   1.408       .  A
C1871      C1872   1.401       .  A
C1871      F1876   1.358       .  S
C1872      C1873   1.406       .  A
C1872      F1888   1.358       .  S
C1873      C1874   1.406       .  A
C1874      F1877   1.357       .  S
C1875      C1878   1.404       .  A
C1875      C1882   1.405       .  A
C1878      C1879   1.401       .  A
C1878      F1883   1.358       .  S
C1879      C1880   1.415       .  A
C1879      F1885   1.356       .  S
C1880      C1881   1.416       .  A
C1881      C1882   1.401       .  A
C1881      F1884   1.354       .  S
C1882      F1886   1.358       .  S
C1889      C1890   1.405       .  A
C1889      C1894   1.402       .  A
C1889      F1907   1.357       .  S
C1890      C1895   1.485       .  S
C1890      C1891   1.405       .  A
C1891      C1892   1.401       .  A
C1891      F1896   1.358       .  S
C1892      C1893   1.405       .  A
C1892      F1908   1.353       .  S
C1893      C1894   1.407       .  A
C1894      F1897   1.359       .  S
C1895      C1898   1.405       .  A
C1895      C1902   1.407       .  A
C1898      C1899   1.399       .  A
C1898      F1903   1.358       .  S
C1899      C1900   1.405       .  A
C1899      F1905   1.358       .  S
C1900      C1901   1.409       .  A
C1901      C1902   1.407       .  A
C1901      F1904   1.358       .  S
C1902      F1906   1.358       .  S
C1909      C1910   1.404       .  A
C1909      C1914   1.397       .  A
C1909      F1927   1.358       .  S
C1910      C1915   1.487       .  S
C1910      C1911   1.407       .  A
C1911      C1912   1.403       .  A
C1911      F1916   1.357       .  S
C1912      C1913   1.408       .  A
C1912      F1928   1.353       .  S
C1913      C1914   1.414       .  A
C1914      F1917   1.358       .  S
C1915      C1918   1.405       .  A
C1915      C1922   1.405       .  A
C1918      C1919   1.404       .  A
C1918      F1923   1.358       .  S
C1919      C1920   1.413       .  A
C1919      F1925   1.357       .  S
C1920      C1921   1.412       .  A
C1921      C1922   1.398       .  A
C1921      F1924   1.358       .  S
C1922      F1926   1.358       .  S
C1929      C1930   1.405       .  A
C1929      C1934   1.398       .  A
C1929      F1947   1.358       .  S
C1930      C1935   1.476       .  S
C1930      C1931   1.406       .  A
C1931      C1932   1.399       .  A
C1931      F1936   1.358       .  S
C1932      C1933   1.404       .  A
C1932      F1948   1.358       .  S
C1933      C1934   1.403       .  A
C1934      F1937   1.358       .  S
C1935      C1938   1.404       .  A
C1935      C1942   1.407       .  A
C1938      C1939   1.392       .  A
C1938      F1943   1.358       .  S
C1939      C1940   1.405       .  A
C1939      F1945   1.358       .  S
C1940      C1941   1.399       .  A
C1941      C1942   1.402       .  A
C1941      F1944   1.353       .  S
C1942      F1946   1.357       .  S
C1949      C1950   1.406       .  A
C1949      C1954   1.404   1_545  A
C1949      F1967   1.357   1_545  S
C1950      C1955   1.484       .  S
C1950      C1951   1.407       .  A
C1951      C1952   1.399       .  A
C1951      F1956   1.358       .  S
C1952      C1953   1.405   1_545  A
C1952      F1968   1.358       .  S
C1953      C1954   1.406       .  A
C1954      F1957   1.358       .  S
C1955      C1958   1.405       .  A
C1955      C1962   1.398       .  A
C1958      C1959   1.408       .  A
C1958      F1963   1.357       .  S
C1959      C1960   1.418       .  A
C1959      F1965   1.353       .  S
C1960      C1961   1.420       .  A
C1961      C1962   1.393       .  A
C1961      F1964   1.359       .  S
C1962      F1966   1.359       .  S
C1969      C1970   1.404       .  A
C1969      C1974   1.396       .  A
C1969      F1987   1.358       .  S
C1970      C1975   1.491       .  S
C1970      C1971   1.410       .  A
C1971      C1972   1.407       .  A
C1971      F1976   1.358       .  S
C1972      C1973   1.407       .  A
C1972      F1988   1.356       .  S
C1973      C1974   1.409       .  A
C1974      F1977   1.357       .  S
C1975      C1978   1.407       .  A
C1975      C1982   1.405       .  A
C1978      C1979   1.404       .  A
C1978      F1983   1.358       .  S
C1979      C1980   1.413       .  A
C1979      F1985   1.357       .  S
C1980      C1981   1.414       .  A
C1981      C1982   1.400       .  A
C1981      F1984   1.358       .  S
C1982      F1986   1.358       .  S
C1989      C1990   1.405       .  A
C1989      C1994   1.403       .  A
C1989      F2007   1.358       .  S
C1990      C1995   1.489       .  S
C1990      C1991   1.407       .  A
C1991      C1992   1.401       .  A
C1991      F1996   1.358       .  S
C1992      C1993   1.407       .  A
C1992      F2008   1.356       .  S
C1993      C1994   1.404       .  A
C1994      F1997   1.352       .  S
C1995      C1998   1.404       .  A
C1995      C2002   1.409       .  A
C1998      C1999   1.395       .  A
C1998      F2003   1.358       .  S
C1999      C2000   1.409       .  A
C1999      F2005   1.358   1_545  S
C2000      C2001   1.411       .  A
C2001      C2002   1.411       .  A
C2001      F2004   1.357       .  S
C2002      F2006   1.357       .  S
C2009      C2010   1.403       .  A
C2009      C2014   1.408       .  A
C2009      F2027   1.357       .  S
C2010      C2015   1.482       .  S
C2010      C2011   1.400       .  A
C2011      C2012   1.397       .  A
C2011      F2016   1.359       .  S
C2012      C2013   1.415       .  A
C2012      F2028   1.358       .  S
C2013      C2014   1.415       .  A
C2014      F2017   1.357       .  S
C2015      C2018   1.400       .  A
C2015      C2022   1.404       .  A
C2018      C2019   1.398       .  A
C2018      F2023   1.358       .  S
C2019      C2020   1.414       .  A
C2019      F2025   1.358       .  S
C2020      C2021   1.414       .  A
C2021      C2022   1.405       .  A
C2021      F2024   1.355       .  S
C2022      F2026   1.357       .  S
C2029      C2030   1.399       .  A
C2029      C2034   1.395       .  A
C2029      F2047   1.358       .  S
C2030      C2035   1.477       .  S
C2030      C2031   1.399       .  A
C2031      C2032   1.401       .  A
C2031      F2036   1.358       .  S
C2032      C2033   1.423       .  A
C2032      F2048   1.353       .  S
C2033      C2034   1.417       .  A
C2034      F2037   1.359       .  S
C2035      C2038   1.404   1_545  A
C2035      C2042   1.406       .  A
C2038      C2039   1.399       .  A
C2038      F2043   1.358       .  S
C2039      C2040   1.404       .  A
C2039      F2045   1.358       .  S
C2040      C2041   1.403   1_565  A
C2041      C2042   1.400       .  A
C2041      F2044   1.358       .  S
C2042      F2046   1.358       .  S
C2049      C2050   1.406       .  A
C2049      C2054   1.398       .  A
C2049      F2067   1.358       .  S
C2050      C2055   1.490       .  S
C2050      C2051   1.408       .  A
C2051      C2052   1.399       .  A
C2051      F2056   1.358       .  S
C2052      C2053   1.403       .  A
C2052      F2068   1.352       .  S
C2053      C2054   1.409       .  A
C2054      F2057   1.358       .  S
C2055      C2058   1.408       .  A
C2055      C2062   1.407       .  A
C2058      C2059   1.404       .  A
C2058      F2063   1.357       .  S
C2059      C2060   1.411       .  A
C2059      F2065   1.357       .  S
C2060      C2061   1.411       .  A
C2061      C2062   1.394       .  A
C2061      F2064   1.358       .  S
C2062      F2066   1.358       .  S
C2069      C2070   1.408       .  A
C2069      C2074   1.400       .  A
C2069      F2087   1.358       .  S
C2070      C2075   1.500       .  S
C2070      C2071   1.413       .  A
C2071      C2072   1.409       .  A
C2071      F2076   1.357       .  S
C2072      C2073   1.406       .  A
C2072      F2088   1.357       .  S
C2073      C2074   1.409       .  A
C2074      F2077   1.358       .  S
C2075      C2078   1.404       .  A
C2075      C2082   1.411       .  A
C2078      C2079   1.396       .  A
C2078      F2083   1.358       .  S
C2079      C2080   1.415       .  A
C2079      F2085   1.355       .  S
C2080      C2081   1.414       .  A
C2081      C2082   1.410       .  A
C2081      F2084   1.354       .  S
C2082      F2086   1.358       .  S
C2089      C2090   1.401       .  A
C2089      C2094   1.396       .  A
C2089      F2107   1.358       .  S
C2090      C2095   1.475       .  S
C2090      C2091   1.401       .  A
C2091      C2092   1.398       .  A
C2091      F2096   1.358       .  S
C2092      C2093   1.417       .  A
C2092      F2108   1.358       .  S
C2093      C2094   1.415       .  A
C2094      F2097   1.356       .  S
C2095      C2098   1.403       .  A
C2095      C2102   1.402       .  A
C2098      C2099   1.401       .  A
C2098      F2103   1.358       .  S
C2099      C2100   1.411   1_545  A
C2099      F2105   1.358       .  S
C2100      C2101   1.411       .  A
C2101      C2102   1.395   1_565  A
C2101      F2104   1.358       .  S
C2102      F2106   1.358       .  S
C2109      C2110   1.406       .  A
C2109      C2114   1.404       .  A
C2109      F2127   1.358       .  S
C2110      C2115   1.482       .  S
C2110      C2111   1.404       .  A
C2111      C2112   1.396       .  A
C2111      F2116   1.358       .  S
C2112      C2113   1.409       .  A
C2112      F2128   1.358   1_545  S
C2113      C2114   1.411       .  A
C2114      F2117   1.358       .  S
C2115      C2118   1.401       .  A
C2115      C2122   1.404       .  A
C2118      C2119   1.398       .  A
C2118      F2123   1.358       .  S
C2119      C2120   1.414       .  A
C2119      F2125   1.358       .  S
C2120      C2121   1.411       .  A
C2121      C2122   1.401       .  A
C2121      F2124   1.355       .  S
C2122      F2126   1.358       .  S
C2129      C2130   1.405       .  A
C2129      C2134   1.395   1_545  A
C2129      F2147   1.358   1_545  S
C2130      C2135   1.480       .  S
C2130      C2131   1.410       .  A
C2131      C2132   1.399       .  A
C2131      F2136   1.358       .  S
C2132      C2133   1.402   1_545  A
C2132      F2148   1.358       .  S
C2133      C2134   1.402       .  A
C2134      F2137   1.357       .  S
C2135      C2138   1.406       .  A
C2135      C2142   1.404       .  A
C2138      C2139   1.393       .  A
C2138      F2143   1.358       .  S
C2139      C2140   1.405       .  A
C2139      F2145   1.358       .  S
C2140      C2141   1.406       .  A
C2141      C2142   1.398       .  A
C2141      F2144   1.350       .  S
C2142      F2146   1.358       .  S
C2149      C2150   1.404       .  A
C2149      C2154   1.393       .  A
C2149      F2167   1.358       .  S
C2150      C2155   1.477       .  S
C2150      C2151   1.406       .  A
C2151      C2152   1.403       .  A
C2151      F2156   1.358       .  S
C2152      C2153   1.406       .  A
C2152      F2168   1.358       .  S
C2153      C2154   1.404       .  A
C2154      F2157   1.358       .  S
C2155      C2158   1.399       .  A
C2155      C2162   1.399       .  A
C2158      C2159   1.397       .  A
C2158      F2163   1.358       .  S
C2159      C2160   1.416       .  A
C2159      F2165   1.356       .  S
C2160      C2161   1.421       .  A
C2161      C2162   1.399       .  A
C2161      F2164   1.351       .  S
C2162      F2166   1.359       .  S
C2169      C2170   1.409       .  A
C2169      C2174   1.405       .  A
C2169      F2187   1.358       .  S
C2170      C2175   1.489       .  S
C2170      C2171   1.405       .  A
C2171      C2172   1.392       .  A
C2171      F2176   1.358       .  S
C2172      C2173   1.410       .  A
C2172      F2188   1.358       .  S
C2173      C2174   1.410       .  A
C2174      F2177   1.358       .  S
C2175      C2178   1.404       .  A
C2175      C2182   1.405       .  A
C2178      C2179   1.399       .  A
C2178      F2183   1.358       .  S
C2179      C2180   1.417       .  A
C2179      F2185   1.358       .  S
C2180      C2181   1.415       .  A
C2181      C2182   1.400       .  A
C2181      F2184   1.354       .  S
C2182      F2186   1.358       .  S
C2189      C2190   1.405       .  A
C2189      C2194   1.401       .  A
C2189      F2207   1.358       .  S
C2190      C2195   1.478       .  S
C2190      C2191   1.401       .  A
C2191      C2192   1.399       .  A
C2191      F2196   1.358       .  S
C2192      C2193   1.403       .  A
C2192      F2208   1.345       .  S
C2193      C2194   1.407       .  A
C2194      F2197   1.358       .  S
C2195      C2198   1.406       .  A
C2195      C2202   1.402       .  A
C2198      C2199   1.405       .  A
C2198      F2203   1.357       .  S
C2199      C2200   1.405       .  A
C2199      F2205   1.357       .  S
C2200      C2201   1.405       .  A
C2201      C2202   1.395       .  A
C2201      F2204   1.356       .  S
C2202      F2206   1.358       .  S
C2209      C2210   1.405       .  A
C2209      C2214   1.393       .  A
C2209      F2227   1.358       .  S
C2210      C2215   1.487       .  S
C2210      C2211   1.409       .  A
C2211      C2212   1.403       .  A
C2211      F2216   1.358       .  S
C2212      C2213   1.405       .  A
C2212      F2228   1.355       .  S
C2213      C2214   1.405       .  A
C2214      F2217   1.354       .  S
C2215      C2218   1.406       .  A
C2215      C2222   1.407       .  A
C2218      C2219   1.402       .  A
C2218      F2223   1.358       .  S
C2219      C2220   1.413       .  A
C2219      F2225   1.358       .  S
C2220      C2221   1.410       .  A
C2221      C2222   1.397       .  A
C2221      F2224   1.358       .  S
C2222      F2226   1.358       .  S
C2229      C2230   1.400       .  A
C2229      C2234   1.393       .  A
C2229      F2247   1.359       .  S
C2230      C2235   1.481       .  S
C2230      C2231   1.405       .  A
C2231      C2232   1.407       .  A
C2231      F2236   1.356       .  S
C2232      C2233   1.413       .  A
C2232      F2248   1.357       .  S
C2233      C2234   1.414       .  A
C2234      F2237   1.358       .  S
C2235      C2238   1.403       .  A
C2235      C2242   1.401       .  A
C2238      C2239   1.399       .  A
C2238      F2243   1.358       .  S
C2239      C2240   1.411       .  A
C2239      F2245   1.353       .  S
C2240      C2241   1.418       .  A
C2241      C2242   1.401       .  A
C2241      F2244   1.357       .  S
C2242      F2246   1.358       .  S
C2249      C2250   1.407       .  A
C2249      C2254   1.398       .  A
C2249      F2267   1.358       .  S
C2250      C2255   1.489       .  S
C2250      C2251   1.406       .  A
C2251      C2252   1.402       .  A
C2251      F2256   1.358       .  S
C2252      C2253   1.409       .  A
C2252      F2268   1.357       .  S
C2253      C2254   1.404       .  A
C2254      F2257   1.352       .  S
C2255      C2258   1.406       .  A
C2255      C2262   1.406       .  A
C2258      C2259   1.404       .  A
C2258      F2263   1.358       .  S
C2259      C2260   1.413       .  A
C2259      F2265   1.357       .  S
C2260      C2261   1.412       .  A
C2261      C2262   1.397       .  A
C2261      F2264   1.358       .  S
C2262      F2266   1.358       .  S
C2269      C2270   1.405       .  A
C2269      C2274   1.392       .  A
C2269      F2287   1.359       .  S
C2270      C2275   1.476       .  S
C2270      C2271   1.405       .  A
C2271      C2272   1.404       .  A
C2271      F2276   1.358       .  S
C2272      C2273   1.407       .  A
C2272      F2288   1.358       .  S
C2273      C2274   1.403       .  A
C2274      F2277   1.356       .  S
C2275      C2278   1.396       .  A
C2275      C2282   1.404       .  A
C2278      C2279   1.384       .  A
C2278      F2283   1.359       .  S
C2279      C2280   1.418       .  A
C2279      F2285   1.360       .  S
C2280      C2281   1.417       .  A
C2281      C2282   1.408       .  A
C2281      F2284   1.351       .  S
C2282      F2286   1.357       .  S
C2289      C2290   1.403       .  A
C2289      C2294   1.402       .  A
C2289      F2307   1.358       .  S
C2290      C2295   1.478       .  S
C2290      C2291   1.404       .  A
C2291      C2292   1.398       .  A
C2291      F2296   1.358       .  S
C2292      C2293   1.404       .  A
C2292      F2308   1.354       .  S
C2293      C2294   1.409       .  A
C2294      F2297   1.357       .  S
C2295      C2298   1.405       .  A
C2295      C2302   1.402       .  A
C2298      C2299   1.406       .  A
C2298      F2303   1.357       .  S
C2299      C2300   1.410       .  A
C2299      F2305   1.358       .  S
C2300      C2301   1.408       .  A
C2301      C2302   1.395       .  A
C2301      F2304   1.358       .  S
C2302      F2306   1.358       .  S
C2309      C2310   1.407       .  A
C2309      C2314   1.396       .  A
C2309      F2327   1.358       .  S
C2310      C2315   1.498       .  S
C2310      C2311   1.414       .  A
C2311      C2312   1.408       .  A
C2311      F2316   1.358       .  S
C2312      C2313   1.407       .  A
C2312      F2328   1.357       .  S
C2313      C2314   1.410       .  A
C2314      F2317   1.359       .  S
C2315      C2318   1.405       .  A
C2315      C2322   1.412       .  A
C2318      C2319   1.397       .  A
C2318      F2323   1.358       .  S
C2319      C2320   1.414       .  A
C2319      F2325   1.358       .  S
C2320      C2321   1.407       .  A
C2321      C2322   1.407       .  A
C2321      F2324   1.353       .  S
C2322      F2326   1.358       .  S
C2329      C2330   1.405       .  A
C2329      C2334   1.400       .  A
C2329      F2347   1.358       .  S
C2330      C2335   1.487       .  S
C2330      C2331   1.405       .  A
C2331      C2332   1.398       .  A
C2331      F2336   1.357       .  S
C2332      C2333   1.413       .  A
C2332      F2348   1.357       .  S
C2333      C2334   1.417       .  A
C2334      F2337   1.358       .  S
C2335      C2338   1.408       .  A
C2335      C2342   1.407       .  A
C2338      C2339   1.403       .  A
C2338      F2343   1.358       .  S
C2339      C2340   1.407       .  A
C2339      F2345   1.358       .  S
C2340      C2341   1.407       .  A
C2341      C2342   1.397       .  A
C2341      F2344   1.358       .  S
C2342      F2346   1.358       .  S
C2349      C2350   1.399       .  A
C2349      C2354   1.389       .  A
C2349      F2367   1.359       .  S
C2350      C2355   1.483       .  S
C2350      C2351   1.406       .  A
C2351      C2352   1.407       .  A
C2351      F2356   1.357       .  S
C2352      C2353   1.414       .  A
C2352      F2368   1.349       .  S
C2353      C2354   1.419       .  A
C2354      F2357   1.359       .  S
C2355      C2358   1.407       .  A
C2355      C2362   1.406       .  A
C2358      C2359   1.395       .  A
C2358      F2363   1.358       .  S
C2359      C2360   1.403       .  A
C2359      F2365   1.358       .  S
C2360      C2361   1.408       .  A
C2361      C2362   1.404       .  A
C2361      F2364   1.358       .  S
C2362      F2366   1.358       .  S
C2369      C2370   1.409       .  A
C2369      C2374   1.397       .  A
C2369      F2387   1.358       .  S
C2370      C2375   1.494       .  S
C2370      C2371   1.410       .  A
C2371      C2372   1.403       .  A
C2371      F2376   1.358       .  S
C2372      C2373   1.404       .  A
C2372      F2388   1.352       .  S
C2373      C2374   1.406       .  A
C2374      F2377   1.358       .  S
C2375      C2378   1.412       .  A
C2375      C2382   1.410       .  A
C2378      C2379   1.401       .  A
C2378      F2383   1.357       .  S
C2379      C2380   1.401       .  A
C2379      F2385   1.358       .  S
C2380      C2381   1.405       .  A
C2381      C2382   1.401       .  A
C2381      F2384   1.358       .  S
C2382      F2386   1.358       .  S
C2389      C2390   1.403       .  A
C2389      C2394   1.396       .  A
C2389      F2407   1.358       .  S
C2390      C2395   1.474       .  S
C2390      C2391   1.404       .  A
C2391      C2392   1.395       .  A
C2391      F2396   1.358       .  S
C2392      C2393   1.406       .  A
C2392      F2408   1.355       .  S
C2393      C2394   1.410       .  A
C2394      F2397   1.358       .  S
C2395      C2398   1.401       .  A
C2395      C2402   1.403       .  A
C2398      C2399   1.391       .  A
C2398      F2403   1.359       .  S
C2399      C2400   1.413       .  A
C2399      F2405   1.358       .  S
C2400      C2401   1.412       .  A
C2401      C2402   1.402       .  A
C2401      F2404   1.357       .  S
C2402      F2406   1.358       .  S
C2409      C2410   1.409       .  A
C2409      C2414   1.401       .  A
C2409      F2427   1.358       .  S
C2410      C2415   1.504       .  S
C2410      C2411   1.411       .  A
C2411      C2412   1.412       .  A
C2411      F2416   1.358       .  S
C2412      C2413   1.412       .  A
C2412      F2428   1.357       .  S
C2413      C2414   1.411       .  A
C2414      F2417   1.358       .  S
C2415      C2418   1.411       .  A
C2415      C2422   1.410       .  A
C2418      C2419   1.404       .  A
C2418      F2423   1.358       .  S
C2419      C2420   1.408       .  A
C2419      F2425   1.357       .  S
C2420      C2421   1.406       .  A
C2421      C2422   1.407       .  A
C2421      F2424   1.354       .  S
C2422      F2426   1.357       .  S
C2429      C2430   1.402       .  A
C2429      C2434   1.398       .  A
C2429      F2447   1.358       .  S
C2430      C2435   1.484       .  S
C2430      C2431   1.404       .  A
C2431      C2432   1.399       .  A
C2431      F2436   1.358       .  S
C2432      C2433   1.415       .  A
C2432      F2448   1.355       .  S
C2433      C2434   1.415       .  A
C2434      F2437   1.358       .  S
C2435      C2438   1.405       .  A
C2435      C2442   1.407       .  A
C2438      C2439   1.394       .  A
C2438      F2443   1.359       .  S
C2439      C2440   1.409   1_554  A
C2439      F2445   1.358       .  S
C2440      C2441   1.409   1_556  A
C2441      C2442   1.405       .  A
C2441      F2444   1.357   1_554  S
C2442      F2446   1.358       .  S
C2449      C2450   1.403       .  A
C2449      C2454   1.398       .  A
C2449      F2467   1.358       .  S
C2450      C2455   1.476       .  S
C2450      C2451   1.405       .  A
C2451      C2452   1.396       .  A
C2451      F2456   1.358       .  S
C2452      C2453   1.409       .  A
C2452      F2468   1.358       .  S
C2453      C2454   1.410       .  A
C2454      F2457   1.358   1_554  S
C2455      C2458   1.401       .  A
C2455      C2462   1.403       .  A
C2458      C2459   1.393       .  A
C2458      F2463   1.358       .  S
C2459      C2460   1.415       .  A
C2459      F2465   1.358       .  S
C2460      C2461   1.413       .  A
C2461      C2462   1.399       .  A
C2461      F2464   1.358       .  S
C2462      F2466   1.358       .  S
C2469      C2470   1.405   1_556  A
C2469      C2474   1.398       .  A
C2469      F2487   1.358       .  S
C2470      C2475   1.475       .  S
C2470      C2471   1.407       .  A
C2471      C2472   1.396       .  A
C2471      F2476   1.358       .  S
C2472      C2473   1.401   1_554  A
C2472      F2488   1.358       .  S
C2473      C2474   1.404       .  A
C2474      F2477   1.358       .  S
C2475      C2478   1.403       .  A
C2475      C2482   1.405       .  A
C2478      C2479   1.396       .  A
C2478      F2483   1.358       .  S
C2479      C2480   1.403       .  A
C2479      F2485   1.349       .  S
C2480      C2481   1.405       .  A
C2481      C2482   1.395       .  A
C2481      F2484   1.358       .  S
C2482      F2486   1.358       .  S
C2489      C2490   1.402       .  A
C2489      C2494   1.397       .  A
C2489      F2507   1.358       .  S
C2490      C2495   1.479       .  S
C2490      C2491   1.404       .  A
C2491      C2492   1.398       .  A
C2491      F2496   1.358       .  S
C2492      C2493   1.410       .  A
C2492      F2508   1.355       .  S
C2493      C2494   1.409       .  A
C2494      F2497   1.355       .  S
C2495      C2498   1.402       .  A
C2495      C2502   1.405       .  A
C2498      C2499   1.391   1_554  A
C2498      F2503   1.359       .  S
C2499      C2500   1.410       .  A
C2499      F2505   1.358       .  S
C2500      C2501   1.412   1_556  A
C2501      C2502   1.404       .  A
C2501      F2504   1.358       .  S
C2502      F2506   1.358       .  S
C2509      C2510   1.406       .  A
C2509      C2514   1.408       .  A
C2509      F2527   1.358       .  S
C2510      C2515   1.501       .  S
C2510      C2511   1.405       .  A
C2511      C2512   1.407       .  A
C2511      F2516   1.357       .  S
C2512      C2513   1.417       .  A
C2512      F2528   1.357       .  S
C2513      C2514   1.420       .  A
C2514      F2517   1.357       .  S
C2515      C2518   1.406       .  A
C2515      C2522   1.408       .  A
C2518      C2519   1.405       .  A
C2518      F2523   1.358       .  S
C2519      C2520   1.415       .  A
C2519      F2525   1.358       .  S
C2520      C2521   1.414       .  A
C2521      C2522   1.411       .  A
C2521      F2524   1.357       .  S
C2522      F2526   1.357       .  S
C2529      C2530   1.406       .  A
C2529      C2534   1.395       .  A
C2529      F2547   1.359       .  S
C2530      C2535   1.486       .  S
C2530      C2531   1.408       .  A
C2531      C2532   1.404       .  A
C2531      F2536   1.357       .  S
C2532      C2533   1.405       .  A
C2532      F2548   1.356       .  S
C2533      C2534   1.406       .  A
C2534      F2537   1.357       .  S
C2535      C2538   1.409       .  A
C2535      C2542   1.405       .  A
C2538      C2539   1.408       .  A
C2538      F2543   1.357       .  S
C2539      C2540   1.408       .  A
C2539      F2545   1.357       .  S
C2540      C2541   1.407   1_554  A
C2541      C2542   1.392   1_556  A
C2541      F2544   1.359       .  S
C2542      F2546   1.359       .  S
C2549      C2550   1.406       .  A
C2549      C2554   1.401       .  A
C2549      F2567   1.357       .  S
C2550      C2555   1.479       .  S
C2550      C2551   1.401       .  A
C2551      C2552   1.394       .  A
C2551      F2556   1.358       .  S
C2552      C2553   1.411       .  A
C2552      F2568   1.356       .  S
C2553      C2554   1.408       .  A
C2554      F2557   1.356       .  S
C2555      C2558   1.403       .  A
C2555      C2562   1.404       .  A
C2558      C2559   1.393       .  A
C2558      F2563   1.359       .  S
C2559      C2560   1.410       .  A
C2559      F2565   1.358       .  S
C2560      C2561   1.413       .  A
C2561      C2562   1.405       .  A
C2561      F2564   1.358       .  S
C2562      F2566   1.358       .  S
C2569      C2570   1.406       .  A
C2569      C2574   1.404   1_554  A
C2569      F2587   1.357       .  S
C2570      C2575   1.479       .  S
C2570      C2571   1.404       .  A
C2571      C2572   1.391       .  A
C2571      F2576   1.359       .  S
C2572      C2573   1.407   1_554  A
C2572      F2588   1.359       .  S
C2573      C2574   1.407       .  A
C2574      F2577   1.357       .  S
C2575      C2578   1.400       .  A
C2575      C2582   1.401       .  A
C2578      C2579   1.391       .  A
C2578      F2583   1.359       .  S
C2579      C2580   1.417       .  A
C2579      F2585   1.358       .  S
C2580      C2581   1.420       .  A
C2581      C2582   1.403       .  A
C2581      F2584   1.354       .  S
C2582      F2586   1.358       .  S
C2589      C2590   1.397       .  A
C2589      C2594   1.383       .  A
C2589      F2607   1.359       .  S
C2590      C2595   1.481       .  S
C2590      C2591   1.406       .  A
C2591      C2592   1.411       .  A
C2591      F2596   1.356       .  S
C2592      C2593   1.416       .  A
C2592      F2608   1.352       .  S
C2593      C2594   1.416       .  A
C2594      F2597   1.356       .  S
C2595      C2598   1.406       .  A
C2595      C2602   1.407       .  A
C2598      C2599   1.405       .  A
C2598      F2603   1.358       .  S
C2599      C2600   1.408       .  A
C2599      F2605   1.358   1_554  S
C2600      C2601   1.403       .  A
C2601      C2602   1.395       .  A
C2601      F2604   1.358       .  S
C2602      F2606   1.358       .  S
C2609      C2610   1.402       .  A
C2609      C2614   1.390       .  A
C2609      F2627   1.359       .  S
C2610      C2615   1.480       .  S
C2610      C2611   1.407       .  A
C2611      C2612   1.406       .  A
C2611      F2616   1.358       .  S
C2612      C2613   1.405       .  A
C2612      F2628   1.352       .  S
C2613      C2614   1.409       .  A
C2614      F2617   1.356       .  S
C2615      C2618   1.407       .  A
C2615      C2622   1.404       .  A
C2618      C2619   1.403       .  A
C2618      F2623   1.358       .  S
C2619      C2620   1.407       .  A
C2619      F2625   1.358       .  S
C2620      C2621   1.407       .  A
C2621      C2622   1.395       .  A
C2621      F2624   1.358       .  S
C2622      F2626   1.358       .  S
C2629      C2630   1.397       .  A
C2629      C2634   1.392       .  A
C2629      F2647   1.359       .  S
C2630      C2635   1.477       .  S
C2630      C2631   1.402       .  A
C2631      C2632   1.405       .  A
C2631      F2636   1.357       .  S
C2632      C2633   1.412       .  A
C2632      F2648   1.349       .  S
C2633      C2634   1.420       .  A
C2634      F2637   1.355       .  S
C2635      C2638   1.401       .  A
C2635      C2642   1.406       .  A
C2638      C2639   1.394       .  A
C2638      F2643   1.358       .  S
C2639      C2640   1.409   1_554  A
C2639      F2645   1.359       .  S
C2640      C2641   1.408       .  A
C2641      C2642   1.406   1_556  A
C2641      F2644   1.357       .  S
C2642      F2646   1.358       .  S
