geometry optimzed in LAMMPS
_audit_creation_date              2020-11-30 
_audit_creation_method            'lammps2cif' 
_symmetry_space_group_name_H-M    'P1' 
_symmetry_Int_Tables_number       1 
_symmetry_cell_setting            triclinic 
loop_ 
_symmetry_equiv_pos_as_xyz 
  x,y,z 
_cell_length_a                    46.19879946 
_cell_length_b                    45.88885065823004 
_cell_length_c                    46.03987925441439 
_cell_angle_alpha                 90.07981780519093 
_cell_angle_beta                  90.09749880341862 
_cell_angle_gamma                 90.3034651594521 
loop_ 
_atom_site_label 
_atom_site_type_symbol 
_atom_site_fract_x 
_atom_site_fract_y 
_atom_site_fract_z 
_atom_site_charge 
O1          O  0.52063127  0.46886321  0.44709120    -0.76600
C2          C  0.44555952  0.53241383  0.45152267     0.84500
O3          O  0.54782678  0.54866331  0.50392793    -0.77700
O4          O  0.45188548  0.53988706  0.54213886    -0.79200
O5          O  0.46028395  0.43664203  0.52889191    -0.79000
O6          O  0.51720261  0.43333446  0.47960157    -0.77600
Zn7        Zn  0.50167706  0.50314721  0.46530244     1.55700
O8          O  0.43030596  0.47447178  0.53237516    -0.79000
Cd9        Cd  0.49754666  0.45566273  0.51307921     1.59700
Cd10       Cd  0.52124552  0.52249167  0.53151944     1.59600
O11         O  0.52663176  0.45059293  0.54512555    -0.79000
O12         O  0.49421455  0.49804592  0.50592615    -1.89500
Cd13       Cd  0.45337613  0.50798374  0.51262522     1.59900
O14         O  0.54717842  0.49327820  0.55638242    -0.78900
O15         O  0.43576881  0.52871548  0.47710135    -0.77600
C16         C  0.54830110  0.54880884  0.47609726     0.84900
C17         C  0.52680024  0.44335253  0.45574348     0.84600
O18         O  0.46877149  0.52047173  0.44285399    -0.76600
C19         C  0.43681089  0.44802098  0.53766744     0.85400
O20         O  0.53162268  0.53256238  0.46138324    -0.76600
C21         C  0.54515450  0.46550874  0.55915477     0.85500
C22         C  0.46855881  0.55460787  0.55841588     0.85900
O23         O  0.49600343  0.55046684  0.55875182    -0.79100
O24         O  0.48013229  0.18872600  0.22194512    -0.76600
C25         C  0.55432198  0.20243795  0.28449731     0.84500
O26         O  0.45338388  0.25481391  0.29784360    -0.77700
O27         O  0.54960157  0.29283239  0.27556660    -0.79200
O28         O  0.53235589  0.27663884  0.18142353    -0.79000
O29         O  0.48311688  0.21713639  0.18273069    -0.77600
Zn30       Zn  0.49670060  0.21153670  0.25473687     1.55700
O31         O  0.56870352  0.27124523  0.21271617    -0.79000
Cd32       Cd  0.49833765  0.25529079  0.20161061     1.59700
Cd33       Cd  0.47894558  0.27861078  0.26742768     1.59600
O34         O  0.46622435  0.28399526  0.19562998    -0.79000
O35         O  0.50426851  0.25100671  0.24391519    -1.89500
Cd36       Cd  0.54617239  0.25788269  0.24949294     1.59900
O37         O  0.45136536  0.30094439  0.23856514    -0.78900
O38         O  0.56513253  0.22561920  0.27384277    -0.77600
C39         C  0.45059629  0.22708360  0.29905984     0.84900
C40         C  0.47464463  0.19391672  0.19537251     0.84600
O41         O  0.52923634  0.19329299  0.27732113    -0.76600
C42         C  0.55847098  0.28128678  0.18907273     0.85400
O43         O  0.46546851  0.21057367  0.28296423    -0.76600
C44         C  0.45021738  0.30038191  0.21079904     0.85500
C45         C  0.53379735  0.31056577  0.28942429     0.85900
O46         O  0.50612574  0.30898712  0.28888977    -0.79100
C47         C  0.80342649  0.76688173  0.79767069     0.82100
N48         N  0.77981410  0.77890000  0.81061906    -0.76200
C49         C  0.76775568  0.80350392  0.79949300     0.84600
N50         N  0.77973978  0.81620599  0.77574736    -0.76100
C51         C  0.80348592  0.80463286  0.76297118     0.84700
N52         N  0.81515174  0.77982026  0.77387609    -0.77800
C53         C  0.77933702  0.95168234  0.95008757     0.82100
N54         N  0.79036714  0.93929211  0.97461162    -0.76200
C55         C  0.81326733  0.95192358  0.98855374     0.84600
N56         N  0.82497420  0.97686802  0.97786517    -0.76100
C57         C  0.81429777  0.98924973  0.95340317     0.84700
N58         N  0.79156094  0.97648836  0.93948812    -0.77800
C59         C  0.95264554  0.79354482  0.99469039     0.82100
N60         N  0.94286793  0.77043523  0.97897274    -0.76200
C61         C  0.95634404  0.76224939  0.95408231     0.84600
N62         N  0.97980041  0.77761422  0.94474729    -0.76100
C63         C  0.99004510  0.80076641  0.96031446     0.84700
N64         N  0.97625959  0.80873991  0.98524285    -0.77800
C65         C  0.96409575  0.94810266  0.76147713     0.82100
N66         N  0.98684967  0.93882254  0.77776765    -0.76200
C67         C  0.99423547  0.95278475  0.80285317     0.84600
N68         N  0.97853634  0.97618587  0.81164782    -0.76100
C69         C  0.95563106  0.98565221  0.79563667     0.84700
N70         N  0.94834838  0.97132729  0.77075062    -0.77800
N71         N  0.06140965  0.86939373  0.87466857    -0.34700
N72         N  0.10386864  0.84275759  0.91286255    -0.55300
N73         N  0.15097817  0.87321524  0.88166237    -0.34700
N74         N  0.10726634  0.90317171  0.84690860    -0.55300
C75         C  0.04358940  0.85574804  0.89366119     0.28900
C76         C  0.04530136  0.88851845  0.85927249     0.28900
C77         C  0.16454747  0.86418076  0.90602208     0.28900
C78         C  0.16645379  0.89591232  0.87102858     0.28900
C79         C  0.08059980  0.82567369  0.91892568     0.37500
C80         C  0.12740084  0.82875153  0.92330066     0.37500
C81         C  0.08495561  0.90935549  0.82883094     0.37500
C82         C  0.13173969  0.91159239  0.83307659     0.37500
C83         C  0.01570460  0.86622538  0.89023245    -0.20000
C84         C  0.01677137  0.88688884  0.86857178    -0.20000
C85         C  0.18880578  0.88144936  0.91101462    -0.20000
C86         C  0.19010448  0.90138783  0.88878956    -0.20000
C87         C  0.08932726  0.80087997  0.93353925    -0.21000
C88         C  0.11891094  0.80274732  0.93623946    -0.21000
C89         C  0.09529875  0.92201418  0.80356787    -0.21000
C90         C  0.12487750  0.92334294  0.80619334    -0.21000
C91         C  0.05146012  0.83266422  0.91242642    -0.16400
C92         C  0.05526988  0.90545819  0.83550930    -0.16400
C93         C  0.15989134  0.91128531  0.84538491    -0.16400
C94         C  0.15614642  0.83996389  0.92297972    -0.16400
H95         H  0.99646370  0.85935744  0.90178412     0.16500
H96         H  0.99841279  0.89881847  0.86025913     0.16500
H97         H  0.20387910  0.88011368  0.92896859     0.16500
H98         H  0.20636058  0.91825761  0.88630878     0.16500
H99         H  0.07580472  0.78324908  0.94138695     0.14800
H100        H  0.13254822  0.78665305  0.94651299     0.14800
H101        H  0.08283443  0.92971203  0.78522007     0.14800
H102        H  0.13962296  0.93221079  0.79019356     0.14800
H103        H  0.08294985  0.86443141  0.87100595     0.28100
H104        H  0.13300391  0.86341943  0.87201827     0.28100
N105        N  0.87732686  0.87022914  0.06220630    -0.34700
N106        N  0.83854356  0.89807524  0.10404339    -0.55300
N107        N  0.87191072  0.87358826  0.15190893    -0.34700
N108        N  0.90784306  0.84206926  0.10935535    -0.55300
C109        C  0.85629002  0.87963163  0.04405501     0.28900
C110        C  0.89472557  0.85224310  0.04686073     0.28900
C111        C  0.84839044  0.88396075  0.16598357     0.28900
C112        C  0.88300489  0.85206276  0.16853965     0.28900
C113        C  0.82890094  0.91053434  0.07921206     0.37500
C114        C  0.82740096  0.91373596  0.12627567     0.37500
C115        C  0.92623907  0.83530438  0.08747671     0.37500
C116        C  0.92079375  0.83382787  0.13438116     0.37500
C117        C  0.86045271  0.86760898  0.01674220    -0.20000
C118        C  0.88477820  0.85056847  0.01842583    -0.20000
C119        C  0.84456916  0.86899436  0.19180325    -0.20000
C120        C  0.86631626  0.84881401  0.19337943    -0.20000
C121        C  0.81118595  0.93389997  0.08567770    -0.21000
C122        C  0.81051155  0.93617981  0.11537707    -0.21000
C123        C  0.95091077  0.82243147  0.09866199    -0.21000
C124        C  0.94742508  0.82137972  0.12832282    -0.21000
C125        C  0.83478443  0.90044380  0.05075774    -0.16400
C126        C  0.92013274  0.83859965  0.05746981    -0.16400
C127        C  0.90823696  0.83581804  0.16242213    -0.16400
C128        C  0.83037722  0.90668091  0.15615978    -0.16400
H129        H  0.84767289  0.87122671  0.99736585     0.16500
H130        H  0.89405746  0.83859412  0.00050744     0.16500
H131        H  0.82745340  0.87173264  0.20756868     0.16500
H132        H  0.86915630  0.83321736  0.21073853     0.16500
H133        H  0.79993046  0.94794595  0.07060478     0.14800
H134        H  0.79863629  0.95246313  0.12740516     0.14800
H135        H  0.96926233  0.81416035  0.08668101     0.14800
H136        H  0.96275074  0.81240007  0.14365428     0.14800
H137        H  0.88066783  0.87710832  0.08337597     0.28100
H138        H  0.88062122  0.88168200  0.13272478     0.28100
N139        N  0.88693722  0.87407206  0.69261811    -0.34700
N140        N  0.85834908  0.83507989  0.65093199    -0.55300
N141        N  0.87901368  0.87145748  0.60328505    -0.34700
N142        N  0.91033578  0.90870419  0.64488837    -0.55300
C143        C  0.87783927  0.85254640  0.71055955     0.28900
C144        C  0.90612123  0.89083886  0.70750640     0.28900
C145        C  0.86885473  0.84809660  0.58831950     0.28900
C146        C  0.89535497  0.88744133  0.58480788     0.28900
C147        C  0.84629453  0.82503270  0.67576583     0.37500
C148        C  0.84329006  0.82284598  0.62878700     0.37500
C149        C  0.91894422  0.92561760  0.66754877     0.37500
C150        C  0.91413349  0.92459474  0.62036847     0.37500
C151        C  0.89119067  0.85574238  0.73734293    -0.20000
C152        C  0.90888721  0.87984636  0.73549965    -0.20000
C153        C  0.87913353  0.84902956  0.56016004    -0.20000
C154        C  0.89477954  0.87419546  0.55758550    -0.20000
C155        C  0.82382786  0.80594661  0.66934478    -0.21000
C156        C  0.82177993  0.80472249  0.63970080    -0.21000
C157        C  0.92888073  0.95221559  0.65729169    -0.21000
C158        C  0.92589025  0.95157907  0.62754521    -0.21000
C159        C  0.85628640  0.83140647  0.70415682    -0.16400
C160        C  0.91932725  0.91695065  0.69721226    -0.16400
C161        C  0.90914529  0.91441456  0.59150580    -0.16400
C162        C  0.84926396  0.82684374  0.59886067    -0.16400
H163        H  0.88810147  0.84245427  0.75650164     0.16500
H164        H  0.92171276  0.88839148  0.75323438     0.16500
H165        H  0.87548882  0.83351469  0.54282268     0.16500
H166        H  0.90384338  0.88148604  0.53729608     0.16500
H167        H  0.81030738  0.79393871  0.68434963     0.14800
H168        H  0.80605752  0.79192706  0.62771081     0.14800
H169        H  0.93765939  0.97014910  0.66986971     0.14800
H170        H  0.93208939  0.96896434  0.61293918     0.14800
H171        H  0.87896825  0.87815660  0.67202535     0.28100
H172        H  0.87363474  0.87721342  0.62434462     0.28100
N173        N  0.86935523  0.69657437  0.88655545    -0.34700
N174        N  0.90389881  0.64914124  0.90995254    -0.55300
N175        N  0.87339111  0.60811385  0.87179274    -0.34700
N176        N  0.84227697  0.65612364  0.84517178    -0.55300
C177        C  0.88903034  0.71201209  0.90219456     0.28900
C178        C  0.85536893  0.71551821  0.86903127     0.28900
C179        C  0.89501589  0.59134806  0.88211951     0.28900
C180        C  0.86346338  0.59532176  0.84724303     0.28900
C181        C  0.91146816  0.67051661  0.92885458     0.37500
C182        C  0.91196136  0.62364276  0.92217868     0.37500
C183        C  0.82547839  0.67980945  0.84087728     0.37500
C184        C  0.82825577  0.63329995  0.83275866     0.37500
C185        C  0.88709339  0.74126065  0.89479713    -0.20000
C186        C  0.86595884  0.74343937  0.87385858    -0.20000
C187        C  0.89886123  0.56759717  0.86386196    -0.20000
C188        C  0.87942964  0.57051245  0.84151261    -0.20000
C189        C  0.92517591  0.65862530  0.95281761    -0.21000
C190        C  0.92535016  0.62895545  0.94869033    -0.21000
C191        C  0.80084699  0.67210180  0.82543439    -0.21000
C192        C  0.80252058  0.64267427  0.82038291    -0.21000
C193        C  0.90738487  0.70070078  0.92415086    -0.16400
C194        C  0.83255088  0.70855531  0.84962720    -0.16400
C195        C  0.83904390  0.60444166  0.83126602    -0.16400
C196        C  0.90908043  0.59582505  0.90897931    -0.16400
H197        H  0.89934576  0.75934762  0.90367174     0.16500
H198        H  0.85909348  0.76339667  0.86347440     0.16500
H199        H  0.91380218  0.54975939  0.86600840     0.16500
H200        H  0.87713420  0.55567401  0.82336578     0.16500
H201        H  0.93415847  0.67010868  0.97132863     0.14800
H202        H  0.93484201  0.61319696  0.96330053     0.14800
H203        H  0.78338032  0.68618249  0.81864945     0.14800
H204        H  0.78644352  0.62974855  0.80901592     0.14800
H205        H  0.86460760  0.67460484  0.88871540     0.28100
H206        H  0.86431920  0.62587815  0.88233993     0.28100
N207        N  0.70384085  0.86457282  0.89082385    -0.34700
N208        N  0.66274233  0.90278370  0.91907765    -0.55300
N209        N  0.61516293  0.87155690  0.89048521    -0.34700
N210        N  0.65657414  0.83545268  0.85973719    -0.55300
C211        C  0.72212855  0.88392862  0.90355538     0.28900
C212        C  0.71905821  0.84974174  0.87057790     0.28900
C213        C  0.60208399  0.89638381  0.89914946     0.28900
C214        C  0.59838251  0.85963305  0.86945118     0.28900
C215        C  0.68648058  0.90913498  0.93518538     0.37500
C216        C  0.63987355  0.91439623  0.93312768     0.37500
C217        C  0.67886580  0.81852550  0.85109376     0.37500
C218        C  0.63189871  0.82110016  0.85254354     0.37500
C219        C  0.74943067  0.88117575  0.89145152    -0.20000
C220        C  0.74749921  0.85972219  0.87065036    -0.20000
C221        C  0.57717303  0.90064104  0.88304383    -0.20000
C222        C  0.57428650  0.87710430  0.86505794    -0.20000
C223        C  0.67872466  0.92515458  0.95945563    -0.21000
C224        C  0.64919758  0.92843121  0.95821629    -0.21000
C225        C  0.66830037  0.79356625  0.83769864    -0.21000
C226        C  0.63856554  0.79510807  0.83876274    -0.21000
C227        C  0.71521655  0.90255213  0.92708197    -0.16400
C228        C  0.70854362  0.82610665  0.85355821    -0.16400
C229        C  0.60365083  0.83256815  0.85571361    -0.16400
C230        C  0.61109385  0.91421428  0.92246398    -0.16400
H231        H  0.76892426  0.89301300  0.89720702     0.16500
H232        H  0.76532680  0.85201429  0.85758002     0.16500
H233        H  0.56223546  0.91867176  0.88419262     0.16500
H234        H  0.55610990  0.87395893  0.85070128     0.16500
H235        H  0.69287820  0.93385983  0.97613580     0.14800
H236        H  0.63618674  0.93994867  0.97398053     0.14800
H237        H  0.68070777  0.77618891  0.82792911     0.14800
H238        H  0.62362085  0.77929426  0.82967585     0.14800
H239        H  0.68264297  0.86043743  0.89692877     0.28100
H240        H  0.63336291  0.86215616  0.89984101     0.28100
N241        N  0.88256526  0.05839227  0.86986934    -0.34700
N242        N  0.85107354  0.10246875  0.90324328    -0.55300
N243        N  0.88611569  0.14867311  0.87717736    -0.34700
N244        N  0.92111981  0.10382596  0.84820128    -0.55300
C245        C  0.86599958  0.04107524  0.88690853     0.28900
C246        C  0.90380802  0.04162920  0.85852399     0.28900
C247        C  0.87380416  0.16313675  0.89959590     0.28900
C248        C  0.90970258  0.16421229  0.86908353     0.28900
C249        C  0.83366928  0.07916292  0.90806633     0.37500
C250        C  0.83676242  0.12609148  0.91324250     0.37500
C251        C  0.93147436  0.08078244  0.83302256     0.37500
C252        C  0.93228295  0.12809605  0.83571482     0.37500
C253        C  0.87645506  0.01279080  0.88585598    -0.20000
C254        C  0.90034398  0.01317112  0.86808875    -0.20000
C255        C  0.88974831  0.18812360  0.90565885    -0.20000
C256        C  0.91235607  0.18881748  0.88637475    -0.20000
C257        C  0.80825337  0.08800846  0.92128390    -0.21000
C258        C  0.81018224  0.11772514  0.92451651    -0.21000
C259        C  0.94950966  0.09037871  0.81103145    -0.21000
C260        C  0.94979527  0.12025759  0.81248128    -0.21000
C261        C  0.84120833  0.04979577  0.90270539    -0.16400
C262        C  0.92583649  0.05109099  0.83926436    -0.16400
C263        C  0.92861383  0.15703706  0.84617496    -0.16400
C264        C  0.84825155  0.15473481  0.91434609    -0.16400
H265        H  0.86786941  0.99378320  0.89682244     0.16500
H266        H  0.91360194  0.99452686  0.86283205     0.16500
H267        H  0.88584795  0.20405706  0.92252476     0.16500
H268        H  0.92917830  0.20529587  0.88562709     0.16500
H269        H  0.79033826  0.07441671  0.92820667     0.14800
H270        H  0.79397010  0.13154308  0.93430539     0.14800
H271        H  0.96104272  0.07721495  0.79537561     0.14800
H272        H  0.96173666  0.13445095  0.79802189     0.14800
H273        H  0.87885202  0.08017891  0.86544612     0.28100
H274        H  0.87821731  0.12999989  0.86703155     0.28100
O275        O  0.28067639  0.44514055  0.21994651    -0.76600
C276        C  0.21772042  0.44673543  0.29655542     0.84500
O277        O  0.19918281  0.50275231  0.19847798    -0.77700
O278        O  0.21691834  0.54149954  0.29459155    -0.79200
O279        O  0.31042083  0.53042652  0.28269807    -0.79000
O280        O  0.31649346  0.47663324  0.22852196    -0.77600
Zn281      Zn  0.24658336  0.46207833  0.24071330     1.55700
O282        O  0.27707797  0.52196505  0.31645576    -0.79000
Cd283      Cd  0.29347665  0.51032714  0.24659927     1.59700
Cd284      Cd  0.22763891  0.52909318  0.22389830     1.59600
O285        O  0.29778268  0.54157954  0.21714489    -0.79000
O286        O  0.25193968  0.50238114  0.24962357    -1.89500
Cd287      Cd  0.24323699  0.50735282  0.29100596     1.59900
O288        O  0.25569665  0.55472319  0.19771107    -0.78900
O289        O  0.22039693  0.47250866  0.30644050    -0.77600
C290        C  0.19763066  0.47486801  0.19836572     0.84900
C291        C  0.30669135  0.45368195  0.21638668     0.84600
O292        O  0.23075669  0.43834366  0.27372154    -0.76600
C293        C  0.30052536  0.53398872  0.30820888     0.85400
O294        O  0.21487117  0.45946941  0.21315997    -0.76600
C295        C  0.28325796  0.55703020  0.19974546     0.85500
C296        C  0.20363708  0.55953758  0.27870407     0.85900
O297        O  0.20395768  0.55791990  0.25093446    -0.79100
O298        O  0.26870232  0.18429186  0.52662322    -0.76600
C299        C  0.19346388  0.20340812  0.46783013     0.84500
O300        O  0.30521617  0.25116344  0.45829325    -0.77700
O301        O  0.20646874  0.28627354  0.46709170    -0.79200
O302        O  0.21794864  0.27031950  0.56979629    -0.79000
O303        O  0.26822733  0.21308325  0.56578578    -0.77600
Zn304      Zn  0.25380879  0.20929413  0.49382190     1.55700
O305        O  0.18992026  0.28088151  0.53202190    -0.79000
Cd306      Cd  0.25325421  0.25176599  0.54857571     1.59700
Cd307      Cd  0.27583655  0.27645549  0.48353699     1.59600
O308        O  0.28478163  0.28172210  0.55634382    -0.79000
O309        O  0.24913926  0.24887362  0.50579330    -1.89500
Cd310      Cd  0.20831107  0.25788500  0.49913709     1.59900
O311        O  0.29964284  0.30116803  0.51440378    -0.78900
O312        O  0.18388346  0.22467539  0.48255141    -0.77600
C313        C  0.30491911  0.22347491  0.45463905     0.84900
C314        C  0.27494767  0.18932707  0.55317762     0.84600
O315        O  0.21951609  0.19472478  0.47033036    -0.76600
C316        C  0.19657061  0.28371551  0.55861680     0.85400
O317        O  0.28601672  0.20758791  0.46676999    -0.76600
C318        C  0.30026179  0.29976033  0.54220454     0.85500
C319        C  0.22253044  0.30324497  0.45272154     0.85900
O320        O  0.25006808  0.30399429  0.45638464    -0.79100
O321        O  0.53085358  0.78441437  0.81817259    -0.76600
C322        C  0.44597340  0.73126577  0.81564236     0.84500
O323        O  0.54835820  0.70770397  0.75744309    -0.77700
O324        O  0.44907559  0.71929417  0.72636899    -0.79200
O325        O  0.46563815  0.82431841  0.74131194    -0.79000
O326        O  0.52631118  0.82079309  0.78666366    -0.77600
Zn327      Zn  0.50617002  0.75246382  0.80006561     1.55700
O328        O  0.43658487  0.78658034  0.73205567    -0.79000
Cd329      Cd  0.50199243  0.80182906  0.75462989     1.59700
Cd330      Cd  0.52038975  0.73478348  0.73251790     1.59600
O331        O  0.52842487  0.80665385  0.72059011    -0.79000
O332        O  0.49661626  0.75949156  0.76029696    -1.89500
Cd333      Cd  0.45491383  0.75275269  0.75441084     1.59900
O334        O  0.54329440  0.76346369  0.70424403    -0.78900
O335        O  0.43447530  0.73961126  0.79194096    -0.77600
C336        C  0.54786857  0.70418493  0.78504431     0.84900
C337        C  0.53793381  0.80967085  0.80903548     0.84600
O338        O  0.47230138  0.73660610  0.82208380    -0.76600
C339        C  0.44362602  0.81318698  0.72878108     0.85400
O340        O  0.53214283  0.71971228  0.80122951    -0.76600
C341        C  0.54326450  0.79141195  0.70322758     0.85500
C342        C  0.46450548  0.70433010  0.70919252     0.85900
O343        O  0.49208331  0.70730888  0.70816828    -0.79100
O344        O  0.19581865  0.71745590  0.97700936    -0.76600
C345        C  0.19499948  0.78034551  0.05568469     0.84500
O346        O  0.24988525  0.80087116  0.95545034    -0.77700
O347        O  0.28784332  0.79029161  0.05239252    -0.79200
O348        O  0.27479110  0.68821803  0.04106648    -0.79000
O349        O  0.23068862  0.68475043  0.98239483    -0.77600
Zn350      Zn  0.21148105  0.75253038  0.99889425     1.55700
O351        O  0.27674348  0.72566091  0.07191793    -0.79000
Cd352      Cd  0.26123767  0.70825653  0.00406247     1.59700
Cd353      Cd  0.27729461  0.77540417  0.98213516     1.59600
O354        O  0.29515408  0.70520919  0.97736760    -0.79000
O355        O  0.25188071  0.74980054  0.00794047    -1.89500
Cd356      Cd  0.25727794  0.75920581  0.04924222     1.59900
O357        O  0.30430032  0.74816238  0.95671425    -0.78900
O358        O  0.22047647  0.77816318  0.06617828    -0.77600
C359        C  0.22217939  0.80095533  0.95524700     0.84900
C360        C  0.20683584  0.69266388  0.97143189     0.84600
O361        O  0.18765322  0.76791479  0.03201366    -0.76600
C362        C  0.28280077  0.69953409  0.06491337     0.85400
O363        O  0.20755487  0.78369940  0.97090825    -0.76600
C364        C  0.30892563  0.72078595  0.95932024     0.85500
C365        C  0.30445838  0.80514861  0.03621675     0.85900
O366        O  0.30351949  0.80307313  0.00848588    -0.79100
O367        O  0.02630530  0.46653503  0.94783316    -0.76600
C368        C  0.95152284  0.53147578  0.93989942     0.84500
O369        O  0.04853061  0.55363392  0.99713954    -0.77700
O370        O  0.95128365  0.54710503  0.03120178    -0.79200
O371        O  0.95967969  0.44716480  0.03264118    -0.79000
O372        O  0.01587347  0.43403822  0.98214340    -0.77600
Zn373      Zn  0.00665107  0.50340134  0.96016244     1.55700
O374        O  0.92840760  0.48278508  0.02364010    -0.79000
Cd375      Cd  0.99703028  0.46112555  0.01259085     1.59700
Cd376      Cd  0.02184760  0.52823810  0.02514344     1.59600
O377        O  0.02553629  0.45834421  0.04509277    -0.79000
O378        O  0.99572984  0.50229280  0.00041891    -1.89500
Cd379      Cd  0.95455848  0.51327250  0.00349709     1.59900
O380        O  0.04670111  0.50123126  0.05365095    -0.78900
O381        O  0.93995928  0.52964997  0.96492861    -0.77600
C382        C  0.05086838  0.55181667  0.96947631     0.84900
C383        C  0.02907921  0.44130698  0.95897802     0.84600
O384        O  0.97538666  0.51908167  0.93390904    -0.76600
C385        C  0.93516633  0.45916872  0.03632762     0.85400
O386        O  0.03646531  0.53322831  0.95505479    -0.76600
C387        C  0.04379413  0.47385765  0.05870001     0.85500
C388        C  0.96797649  0.56172511  0.04755693     0.85900
O389        O  0.99532666  0.55740178  0.04876122    -0.79100
O390        O  0.18844485  0.02379842  0.77944291    -0.76600
C391        C  0.19998446  0.96853115  0.69957572     0.84500
O392        O  0.25240374  0.94519797  0.80300167    -0.77700
O393        O  0.28897971  0.96836608  0.70654582    -0.79200
O394        O  0.27285785  0.06718299  0.72823417    -0.79000
O395        O  0.22086423  0.05958255  0.78456283    -0.77600
Zn396      Zn  0.21061199  0.99154728  0.76035663     1.55700
O397        O  0.27556977  0.03272148  0.69428151    -0.79000
Cd398      Cd  0.25609617  0.04287938  0.76271562     1.59700
Cd399      Cd  0.27763190  0.97479816  0.77776079     1.59600
O400        O  0.28790030  0.04562633  0.79236894    -0.79000
O401        O  0.25054568  0.00090194  0.75428708    -1.89500
Cd402      Cd  0.25727937  0.99687140  0.71248904     1.59900
O403        O  0.30253802  0.00140684  0.80590482    -0.78900
O404        O  0.22352455  0.97909088  0.68997771    -0.77600
C405        C  0.22475771  0.94470886  0.80502318     0.84900
C406        C  0.19622591  0.04823650  0.79005344     0.84600
O407        O  0.19165982  0.97276317  0.72559043    -0.76600
C408        C  0.28158792  0.05807763  0.70360462     0.85400
O409        O  0.20914211  0.96133599  0.78974693    -0.76600
C410        C  0.30385830  0.02921939  0.80761131     0.85500
C411        C  0.30680060  0.95349992  0.72109406     0.85900
O412        O  0.30619607  0.95290185  0.74891102    -0.79100
O413        O  0.67916614  0.72058670  0.49009719    -0.76600
C414        C  0.69599864  0.78577868  0.56166134     0.84500
O415        O  0.74437496  0.79929809  0.45911174    -0.77700
O416        O  0.78528957  0.78033507  0.55492786    -0.79200
O417        O  0.77117405  0.68582222  0.53490852    -0.79000
O418        O  0.71253339  0.68595729  0.48531210    -0.77600
Zn419      Zn  0.70299395  0.75536063  0.50346905     1.55700
O420        O  0.76643116  0.71616718  0.57243698    -0.79000
Cd421      Cd  0.74891045  0.70555919  0.50197081     1.59700
Cd422      Cd  0.76984706  0.77136886  0.48414320     1.59600
O423        O  0.77645707  0.70097271  0.46909050    -0.79000
O424        O  0.74321997  0.74701653  0.50954292    -1.89500
Cd425      Cd  0.75142509  0.75262656  0.55135310     1.59900
O426        O  0.79322341  0.74421606  0.45516077    -0.78900
O427        O  0.71898359  0.77473126  0.57199106    -0.77600
C428        C  0.71698089  0.79845451  0.45558621     0.84900
C429        C  0.68718118  0.69571820  0.48084811     0.84600
O430        O  0.68662396  0.77928450  0.53639263    -0.76600
C431        C  0.77681312  0.69331049  0.56091536     0.85400
O432        O  0.70070309  0.78183514  0.47036187    -0.76600
C433        C  0.79229564  0.71642968  0.45282585     0.85500
C434        C  0.80076653  0.79609501  0.53843853     0.85900
O435        O  0.79769093  0.79622265  0.51081950    -0.79100
O436        O  0.02933004  0.77949367  0.32104511    -0.76600
C437        C  0.94976568  0.71883324  0.31326321     0.84500
O438        O  0.05188478  0.70442416  0.25596503    -0.77700
O439        O  0.95277649  0.72089403  0.22294465    -0.79200
O440        O  0.96893235  0.82110488  0.24220050    -0.79000
O441        O  0.02610403  0.81750606  0.29115975    -0.77600
Zn442      Zn  0.00816811  0.74688900  0.30054723     1.55700
O443        O  0.93701785  0.78484483  0.23716624    -0.79000
Cd444      Cd  0.00501578  0.79889629  0.25631425     1.59700
Cd445      Cd  0.02362053  0.73234616  0.23283028     1.59600
O446        O  0.03267132  0.80483606  0.22288847    -0.79000
O447        O  0.99933601  0.75625536  0.26108089    -1.89500
Cd448      Cd  0.95760622  0.74947929  0.25526515     1.59900
O449        O  0.04808099  0.76153822  0.20713013    -0.78900
O450        O  0.93860461  0.72785521  0.28960488    -0.77600
C451        C  0.05400668  0.70260303  0.28358163     0.84900
C452        C  0.03597938  0.80551117  0.31397253     0.84600
O453        O  0.97512056  0.72651493  0.32126628    -0.76600
C454        C  0.94512452  0.81098689  0.23252362     0.85400
O455        O  0.03802314  0.71749577  0.30013886    -0.76600
C456        C  0.04798058  0.78941922  0.20600796     0.85500
C457        C  0.96809506  0.70641491  0.20541624     0.85900
O458        O  0.99578574  0.70723913  0.20598923    -0.79100
O459        O  0.57544678  0.03225687  0.98407454    -0.76600
C460        C  0.56776972  0.97161061  0.06143893     0.84500
O461        O  0.51776433  0.94997803  0.95952625    -0.77700
O462        O  0.48082173  0.96101173  0.05268735    -0.79200
O463        O  0.48846946  0.06575358  0.03951144    -0.79000
O464        O  0.54393625  0.06861032  0.98791237    -0.77600
Zn465      Zn  0.55575313  0.99817994  0.00255758     1.55700
O466        O  0.48392120  0.02831185  0.07008240    -0.79000
Cd467      Cd  0.50832714  0.04640819  0.00421025     1.59700
Cd468      Cd  0.49091814  0.97842801  0.98333355     1.59600
O469        O  0.47887459  0.05015640  0.97176467    -0.79000
O470        O  0.51561256  0.00416153  0.00958116    -1.89500
Cd471      Cd  0.50798953  0.99554148  0.05083957     1.59900
O472        O  0.46842118  0.00570241  0.95440744    -0.78900
O473        O  0.54423287  0.98048060  0.07272287    -0.77600
C474        C  0.54537867  0.95068766  0.95840384     0.84900
C475        C  0.56766865  0.05821450  0.97857700     0.84600
O476        O  0.57519236  0.97837032  0.03572024    -0.76600
C477        C  0.47799115  0.05429551  0.06240063     0.85400
O478        O  0.55991657  0.96871592  0.97321648    -0.76600
C479        C  0.46596417  0.03346899  0.95387298     0.85500
C480        C  0.46356236  0.94743384  0.03592212     0.85900
O481        O  0.46242998  0.95265293  0.00865168    -0.79100
C482        C  0.31154644  0.80073868  0.26399543     0.82100
N483        N  0.28931366  0.81548774  0.27654820    -0.76200
C484        C  0.27577367  0.80453944  0.30039377     0.84600
N485        N  0.28502769  0.77899613  0.31201397    -0.76100
C486        C  0.30745207  0.76428643  0.29994361     0.84700
N487        N  0.32063220  0.77525507  0.27589738    -0.77800
N488        N  0.39060266  0.69564848  0.36667295    -0.34700
N489        N  0.41141424  0.65405552  0.40972099    -0.55300
N490        N  0.38085367  0.60751807  0.37803524    -0.34700
N491        N  0.35710108  0.64965725  0.33769273    -0.55300
C492        C  0.40350735  0.71381133  0.38601655     0.28900
C493        C  0.37286791  0.71193894  0.34984495     0.28900
C494        C  0.38825578  0.59361816  0.40279985     0.28900
C495        C  0.36070584  0.59084689  0.36440262     0.28900
C496        C  0.42862093  0.67699895  0.41673284     0.37500
C497        C  0.42233878  0.63055141  0.42356325     0.37500
C498        C  0.35176855  0.67196868  0.31929708     0.37500
C499        C  0.34864135  0.62490530  0.32402171     0.37500
C500        C  0.39416077  0.74205163  0.38122604    -0.20000
C501        C  0.37483879  0.74088834  0.35850958    -0.20000
C502        C  0.37236957  0.56807617  0.40519200    -0.20000
C503        C  0.35562234  0.56591978  0.38077083    -0.20000
C504        C  0.45032040  0.66814210  0.43549819    -0.21000
C505        C  0.44634134  0.63872813  0.43984831    -0.21000
C506        C  0.33928678  0.66145656  0.29395944    -0.21000
C507        C  0.33741976  0.63166621  0.29686663    -0.21000
C508        C  0.42448388  0.70595355  0.40702226    -0.16400
C509        C  0.35624745  0.70180306  0.32585049    -0.16400
C510        C  0.34871598  0.59668018  0.33665315    -0.16400
C511        C  0.41062716  0.60196528  0.42213239    -0.16400
H512        H  0.40062174  0.76153935  0.39287551     0.16500
H513        H  0.36385377  0.75945409  0.34924327     0.16500
H514        H  0.37326648  0.55205281  0.42238634     0.16500
H515        H  0.34198084  0.54740890  0.37601652     0.16500
H516        H  0.46728173  0.68144780  0.44500329     0.14800
H517        H  0.45976667  0.62493848  0.45327461     0.14800
H518        H  0.33203754  0.67395930  0.27542817     0.14800
H519        H  0.32813420  0.61685176  0.28104742     0.14800
H520        H  0.39497268  0.67369644  0.36409298     0.28100
H521        H  0.39070811  0.62608744  0.36981640     0.28100
C522        C  0.49335573  0.95151851  0.30086681     0.82100
N523        N  0.48443095  0.97449789  0.31721253    -0.76200
C524        C  0.46051303  0.98985285  0.30954757     0.84600
N525        N  0.44491278  0.98149783  0.28576445    -0.76100
C526        C  0.45353828  0.95839834  0.26937529     0.84700
N527        N  0.47777179  0.94356090  0.27707706    -0.77800
N528        N  0.56235202  0.87180080  0.37223683    -0.34700
N529        N  0.60843719  0.91073215  0.35218113    -0.55300
N530        N  0.65150260  0.87309064  0.37946566    -0.34700
N531        N  0.60537025  0.83180103  0.39598896    -0.55300
C532        C  0.54661358  0.89010423  0.35551877     0.28900
C533        C  0.54515070  0.84892247  0.37924946     0.28900
C534        C  0.66934520  0.89106489  0.36443337     0.28900
C535        C  0.66738207  0.85006909  0.38836122     0.28900
C536        C  0.58522855  0.92720669  0.34502734     0.37500
C537        C  0.63232126  0.92747097  0.34806870     0.37500
C538        C  0.58107853  0.81924965  0.40680504     0.37500
C539        C  0.62788647  0.82006262  0.41061140     0.37500
C540        C  0.51889274  0.87867798  0.35213506    -0.20000
C541        C  0.51807652  0.85268592  0.36688264    -0.20000
C542        C  0.69712728  0.87956538  0.36485685    -0.20000
C543        C  0.69561386  0.85340352  0.37890337    -0.20000
C544        C  0.59441357  0.95443232  0.33583375    -0.21000
C545        C  0.62407679  0.95459679  0.33758978    -0.21000
C546        C  0.58820388  0.79911652  0.42797895    -0.21000
C547        C  0.61774150  0.79970407  0.43050735    -0.21000
C548        C  0.55596090  0.91764589  0.34490030    -0.16400
C549        C  0.55244453  0.82573799  0.39815429    -0.16400
C550        C  0.65752597  0.82681804  0.40597325    -0.16400
C551        C  0.66147265  0.91802114  0.35150666    -0.16400
H552        H  0.50076203  0.88809371  0.34071458     0.16500
H553        H  0.49943302  0.83842629  0.36871747     0.16500
H554        H  0.71703361  0.88882721  0.35676510     0.16500
H555        H  0.71362669  0.83877622  0.38203247     0.16500
H556        H  0.58118144  0.97221198  0.32810008     0.14800
H557        H  0.63777803  0.97269396  0.33134436     0.14800
H558        H  0.57363599  0.78572993  0.44070192     0.14800
H559        H  0.63013915  0.78684924  0.44572785     0.14800
H560        H  0.58299681  0.87561732  0.38005734     0.28100
H561        H  0.63009780  0.87693573  0.38469488     0.28100
N562        N  0.38197106  0.88454361  0.19572550    -0.34700
N563        N  0.35000841  0.85134115  0.15186449    -0.55300
N564        N  0.38597182  0.87571460  0.10563100    -0.34700
N565        N  0.42106604  0.90483783  0.15063664    -0.55300
C566        C  0.36600931  0.86672289  0.21282287     0.28900
C567        C  0.40385340  0.89531023  0.21220333     0.28900
C568        C  0.37293143  0.85332551  0.09153117     0.28900
C569        C  0.41032991  0.88233977  0.09076699     0.28900
C570        C  0.33241568  0.84726794  0.17503196     0.37500
C571        C  0.33499929  0.84231649  0.12821510     0.37500
C572        C  0.43085366  0.92112797  0.17322976     0.37500
C573        C  0.43256696  0.91669399  0.12633932     0.37500
C574        C  0.37760649  0.86653104  0.24063920    -0.20000
C575        C  0.40156065  0.88445641  0.24021105    -0.20000
C576        C  0.38922699  0.84565926  0.06744688    -0.20000
C577        C  0.41278048  0.86412473  0.06687942    -0.20000
C578        C  0.30620388  0.83550289  0.16613693    -0.21000
C579        C  0.30776285  0.83246897  0.13651488    -0.21000
C580        C  0.44872693  0.94324555  0.16331088    -0.21000
C581        C  0.44965274  0.94061332  0.13364207    -0.21000
C582        C  0.34056650  0.85168221  0.20432031    -0.16400
C583        C  0.42526108  0.91535853  0.20284537    -0.16400
C584        C  0.42997972  0.90484254  0.09797341    -0.16400
C585        C  0.34648068  0.84014673  0.09972162    -0.16400
H586        H  0.36968715  0.85470858  0.25935655     0.16500
H587        H  0.41564149  0.88897184  0.25849925     0.16500
H588        H  0.38493268  0.82830223  0.05208537     0.16500
H589        H  0.43000418  0.86382037  0.05098043     0.16500
H590        H  0.28801411  0.82935434  0.17963401     0.14800
H591        H  0.29086337  0.82360150  0.12273941     0.14800
H592        H  0.45993803  0.95957054  0.17613462     0.14800
H593        H  0.46181439  0.95461248  0.11916336     0.14800
H594        H  0.37733401  0.89012469  0.17438702     0.28100
H595        H  0.37806428  0.88678222  0.12366123     0.28100
C596        C  0.27237708  0.95636325  0.45078600     0.82100
N597        N  0.28491114  0.94304512  0.47386696    -0.76200
C598        C  0.30892447  0.95450890  0.48675358     0.84600
N599        N  0.32091583  0.97958843  0.47596081    -0.76100
C600        C  0.30830602  0.99319348  0.45275346     0.84700
N601        N  0.28409558  0.98145128  0.44052780    -0.77800
C602        C  0.45377032  0.81039661  0.48486354     0.82100
N603        N  0.47520960  0.82231301  0.46874744    -0.76200
C604        C  0.48656223  0.80780373  0.44586777     0.84600
N605        N  0.47558054  0.78124237  0.43831461    -0.76100
C606        C  0.45353456  0.76919071  0.45406045     0.84700
N607        N  0.44286082  0.78380807  0.47745615    -0.77800
N608        N  0.38562848  0.88206072  0.55922438    -0.34700
N609        N  0.35701184  0.91730187  0.60238337    -0.55300
N610        N  0.37989147  0.88027777  0.64870930    -0.34700
N611        N  0.40495900  0.84209924  0.60492591    -0.55300
C612        C  0.36905421  0.89918222  0.54196412     0.28900
C613        C  0.39357662  0.85859923  0.54332943     0.28900
C614        C  0.35744839  0.89343187  0.66206244     0.28900
C615        C  0.38521379  0.85554047  0.66356126     0.28900
C616        C  0.35468865  0.93543436  0.57929681     0.37500
C617        C  0.34987969  0.93292191  0.62623004     0.37500
C618        C  0.41936001  0.83088484  0.58199229     0.37500
C619        C  0.41769362  0.83117534  0.62902704     0.37500
C620        C  0.36690342  0.88655128  0.51462617    -0.20000
C621        C  0.38202396  0.86086857  0.51561241    -0.20000
C622        C  0.34808309  0.87637993  0.68516329    -0.20000
C623        C  0.36601355  0.85270278  0.68640733    -0.20000
C624        C  0.34597362  0.96275763  0.58850000    -0.21000
C625        C  0.34301572  0.96121653  0.61821273    -0.21000
C626        C  0.44115681  0.81256802  0.59153660    -0.21000
C627        C  0.44023079  0.81289888  0.62138150    -0.21000
C628        C  0.35719897  0.92655750  0.54993370    -0.16400
C629        C  0.41235772  0.83605826  0.55257298    -0.16400
C630        C  0.40776934  0.83608035  0.65760708    -0.16400
C631        C  0.34627161  0.92094754  0.65442896    -0.16400
H632        H  0.35588086  0.89484809  0.49566499     0.16500
H633        H  0.38448735  0.84576311  0.49772661     0.16500
H634        H  0.32998313  0.88014010  0.69950931     0.16500
H635        H  0.36470189  0.83507360  0.70195540     0.16500
H636        H  0.34157194  0.98162942  0.57516281     0.14800
H637        H  0.33605929  0.97879632  0.63221471     0.14800
H638        H  0.45623450  0.80035000  0.57837162     0.14800
H639        H  0.45436392  0.80084568  0.63571125     0.14800
H640        H  0.39256120  0.88687754  0.58016318     0.28100
H641        H  0.39210020  0.88850566  0.63153757     0.28100
N642        N  0.39131864  0.06388485  0.38414207    -0.34700
N643        N  0.35808872  0.10739527  0.41558058    -0.55300
N644        N  0.38286152  0.15469801  0.37988201    -0.34700
N645        N  0.41182117  0.10987043  0.34516671    -0.55300
C646        C  0.37391131  0.04647222  0.40028681     0.28900
C647        C  0.40133890  0.04765961  0.36175298     0.28900
C648        C  0.35998007  0.16831917  0.39210380     0.28900
C649        C  0.39009271  0.16987240  0.35572691     0.28900
C650        C  0.35394817  0.08421519  0.43343683     0.37500
C651        C  0.34821389  0.13114484  0.42991881     0.37500
C652        C  0.42739498  0.08702606  0.33509010     0.37500
C653        C  0.42424038  0.13424340  0.33410573     0.37500
C654        C  0.37332714  0.01871500  0.38833732    -0.20000
C655        C  0.39041506  0.01952272  0.36392621    -0.20000
C656        C  0.35268429  0.19241260  0.37547359    -0.20000
C657        C  0.37182424  0.19349917  0.35266149    -0.20000
C658        C  0.34132293  0.09322752  0.45913098    -0.21000
C659        C  0.33774791  0.12286074  0.45697337    -0.21000
C660        C  0.44970594  0.09686609  0.31758384    -0.21000
C661        C  0.44792991  0.12670854  0.31717888    -0.21000
C662        C  0.35916429  0.05473739  0.42592213    -0.16400
C663        C  0.42074383  0.05728755  0.33992518    -0.16400
C664        C  0.41276612  0.16282908  0.33645526    -0.16400
C665        C  0.34583859  0.15965567  0.41799173    -0.16400
H666        H  0.36158782  0.99984135  0.39617337     0.16500
H667        H  0.39427015  0.00137090  0.34943801     0.16500
H668        H  0.33499408  0.20736795  0.37885343     0.16500
H669        H  0.37168854  0.20941005  0.33533990     0.16500
H670        H  0.33493301  0.07978481  0.47735001     0.14800
H671        H  0.32817758  0.13667404  0.47339711     0.14800
H672        H  0.46558734  0.08386744  0.30624528     0.14800
H673        H  0.46225104  0.14113719  0.30532642     0.14800
H674        H  0.39700732  0.08529544  0.38886016     0.28100
H675        H  0.39363336  0.13663233  0.38810457     0.28100
N676        N  0.20463062  0.86607298  0.38509477    -0.34700
N677        N  0.16076588  0.89807286  0.41778211    -0.55300
N678        N  0.11545955  0.86681483  0.38622262    -0.34700
N679        N  0.15915538  0.83151152  0.35709065    -0.55300
C680        C  0.22141429  0.87869699  0.40582895     0.28900
C681        C  0.22065335  0.84518945  0.37199478     0.28900
C682        C  0.10019897  0.87975783  0.40763830     0.28900
C683        C  0.09951963  0.84378100  0.37702011     0.28900
C684        C  0.18467817  0.91235134  0.42734884     0.37500
C685        C  0.13762486  0.91373309  0.42663829     0.37500
C686        C  0.18208556  0.82196664  0.34156512     0.37500
C687        C  0.13512871  0.82112133  0.34365995     0.37500
C688        C  0.24857495  0.86586729  0.40553917    -0.20000
C689        C  0.24809450  0.84482956  0.38422399    -0.20000
C690        C  0.07450111  0.86472303  0.41218451    -0.20000
C691        C  0.07412785  0.84195534  0.39294942    -0.20000
C692        C  0.17659959  0.93694070  0.44283630    -0.21000
C693        C  0.14686822  0.93797640  0.44211879    -0.21000
C694        C  0.17258659  0.80516763  0.31834853    -0.21000
C695        C  0.14285867  0.80466576  0.31964253    -0.21000
C696        C  0.21352826  0.90241382  0.42400590    -0.16400
C697        C  0.21149602  0.82680600  0.34890211    -0.16400
C698        C  0.10644035  0.82523199  0.35360452    -0.16400
C699        C  0.10832424  0.90531418  0.42266300    -0.16400
H700        H  0.26699870  0.87116693  0.41913492     0.16500
H701        H  0.26594195  0.83076676  0.37849887     0.16500
H702        H  0.05784285  0.86942859  0.42798292     0.16500
H703        H  0.05706934  0.82581299  0.39101382     0.16500
H704        H  0.19054703  0.95245577  0.45379506     0.14800
H705        H  0.13362457  0.95442832  0.45234461     0.14800
H706        H  0.18571164  0.79426558  0.30224011     0.14800
H707        H  0.12864050  0.79336665  0.30464617     0.14800
H708        H  0.18386035  0.87219154  0.37925475     0.28100
H709        H  0.13468120  0.87439710  0.37719384     0.28100
O710        O  0.68065954  0.02780176  0.27198750    -0.76600
C711        C  0.69304514  0.96598776  0.19771242     0.84500
O712        O  0.74572960  0.95164953  0.29903907    -0.77700
O713        O  0.78252030  0.96722296  0.20276496    -0.79200
O714        O  0.76488380  0.06703340  0.21895993    -0.79000
O715        O  0.71384896  0.06286191  0.27703033    -0.77600
Zn716      Zn  0.70314249  0.99477368  0.25537406     1.55700
O717        O  0.76527745  0.03275861  0.18446510    -0.79000
Cd718      Cd  0.74866020  0.04557294  0.25491593     1.59700
Cd719      Cd  0.77084012  0.97975943  0.27325627     1.59600
O720        O  0.78082552  0.05133336  0.28348976    -0.79000
O721        O  0.74342452  0.00353517  0.24825598    -1.89500
Cd722      Cd  0.75061787  0.99660791  0.20668203     1.59900
O723        O  0.79549367  0.00820395  0.29998445    -0.78900
O724        O  0.71736893  0.97426867  0.18781086    -0.77600
C725        C  0.71819500  0.95011870  0.30125998     0.84900
C726        C  0.68891453  0.05214261  0.28229616     0.84600
O727        O  0.68346786  0.97436392  0.22216735    -0.76600
C728        C  0.77163397  0.05817191  0.19361254     0.85400
O729        O  0.70136663  0.96583166  0.28634964    -0.76600
C730        C  0.79672864  0.03608567  0.29983676     0.85500
C731        C  0.79870492  0.95193258  0.21887415     0.85900
O732        O  0.79814093  0.95406205  0.24659465    -0.79100
O733        O  0.81495403  0.22285005  0.97214449    -0.76600
C734        C  0.81272094  0.30139135  0.03457314     0.84500
O735        O  0.75197344  0.20803899  0.05341082    -0.77700
O736        O  0.71871390  0.30324044  0.03298152    -0.79200
O737        O  0.73440701  0.28709803  0.93704569    -0.79000
O738        O  0.78790900  0.23546512  0.93423941    -0.77600
Zn739      Zn  0.79701352  0.24542320  0.00558839     1.55700
O740        O  0.73926812  0.32142997  0.97115390    -0.79000
Cd741      Cd  0.75221425  0.25106476  0.95605543     1.59700
Cd742      Cd  0.72880423  0.23229184  0.02229122     1.59600
O743        O  0.72224172  0.21946378  0.95101255    -0.79000
O744        O  0.75753554  0.25589807  0.99824112    -1.89500
Cd745      Cd  0.75290155  0.29753572  0.00664787     1.59900
O746        O  0.70510311  0.20501607  0.99402456    -0.78900
O747        O  0.78743980  0.31175983  0.03103843    -0.77600
C748        C  0.77943213  0.20706361  0.05666521     0.84900
C749        C  0.80918144  0.22174810  0.94505869     0.84600
O750        O  0.82133638  0.27873771  0.02116665    -0.76600
C751        C  0.73008287  0.31272688  0.94647554     0.85400
O752        O  0.79662589  0.21976520  0.03931321    -0.76600
C753        C  0.70580157  0.20338696  0.96628539     0.85500
C754        C  0.69978054  0.28793126  0.04581310     0.85900
O755        O  0.69994085  0.26009361  0.04465415    -0.79100
C756        C  0.30840844  0.26378936  0.81025766     0.82100
N757        N  0.28582742  0.27356466  0.82653115    -0.76200
C758        C  0.27214945  0.29876440  0.81936128     0.84600
N759        N  0.28137835  0.31423159  0.79589911    -0.76100
C760        C  0.30379682  0.30458621  0.77951601     0.84700
N761        N  0.31729452  0.27944113  0.78690366    -0.77800
C762        C  0.49127370  0.30585906  0.95423869     0.82100
N763        N  0.48422971  0.28081055  0.93986007    -0.76200
C764        C  0.46005665  0.26546610  0.94735303     0.84600
N765        N  0.44269644  0.27565629  0.96892239    -0.76100
C766        C  0.44926126  0.30087189  0.98297025     0.84700
N767        N  0.47359898  0.31581107  0.97555460    -0.77800
C768        C  0.45323259  0.45906753  0.76823128     0.82100
N769        N  0.47461470  0.44240948  0.77985014    -0.76200
C770        C  0.48892778  0.45121807  0.80416925     0.84600
N771        N  0.48127354  0.47664268  0.81728350    -0.76100
C772        C  0.45969081  0.49330256  0.80610182     0.84700
N773        N  0.44580217  0.48440287  0.78152581    -0.77800
C774        C  0.26529486  0.46004556  0.95270444     0.82100
N775        N  0.27899902  0.48392240  0.94182535    -0.76200
C776        C  0.30032210  0.49738364  0.95724990     0.84600
N777        N  0.30834201  0.48640826  0.98337375    -0.76100
C778        C  0.29562262  0.46193582  0.99404629     0.84700
N779        N  0.27394621  0.44876032  0.97867890    -0.77800
N780        N  0.37454377  0.56308655  0.87027698    -0.34700
N781        N  0.41405108  0.60820014  0.84950319    -0.55300
N782        N  0.38423728  0.65106728  0.88598391    -0.34700
N783        N  0.34848252  0.60477868  0.91033586    -0.55300
C784        C  0.39357253  0.54661638  0.85518055     0.28900
C785        C  0.35856529  0.54485092  0.88697057     0.28900
C786        C  0.40816691  0.66589759  0.87788433     0.28900
C787        C  0.37416633  0.66411481  0.91024482     0.28900
C788        C  0.42053452  0.58674908  0.83041428     0.37500
C789        C  0.42527448  0.63314627  0.83856010     0.37500
C790        C  0.33004273  0.58208545  0.91404416     0.37500
C791        C  0.33569411  0.62829994  0.92241752     0.37500
C792        C  0.38932003  0.51748194  0.86210514    -0.20000
C793        C  0.36732666  0.51638394  0.88217310    -0.20000
C794        C  0.41346842  0.68851533  0.89720812    -0.20000
C795        C  0.39200694  0.68732255  0.91775691    -0.20000
C796        C  0.43634499  0.59802359  0.80745010    -0.21000
C797        C  0.43921798  0.62744976  0.81251332    -0.21000
C798        C  0.30551652  0.59117106  0.92869535    -0.21000
C799        C  0.30904545  0.62042470  0.93395226    -0.21000
C800        C  0.41351203  0.55694170  0.83414105    -0.16400
C801        C  0.33560079  0.55297839  0.90561066    -0.16400
C802        C  0.34858627  0.65628340  0.92490585    -0.16400
C803        C  0.42426333  0.66065358  0.85250600    -0.16400
H804        H  0.40069479  0.49883036  0.85348602     0.16500
H805        H  0.35869654  0.49677190  0.89200022     0.16500
H806        H  0.43100330  0.70423714  0.89656010     0.16500
H807        H  0.38984687  0.70189387  0.93611472     0.16500
H808        H  0.44485891  0.58628857  0.78895904     0.14800
H809        H  0.45039781  0.64281354  0.79862616     0.14800
H810        H  0.28698299  0.57810506  0.93494484     0.14800
H811        H  0.29370492  0.63424419  0.94506718     0.14800
H812        H  0.37158878  0.58534327  0.86819627     0.28100
H813        H  0.37430158  0.63427576  0.87445261     0.28100
N814        N  0.56320918  0.38035389  0.88064689    -0.34700
N815        N  0.60854905  0.35139538  0.91401310    -0.55300
N816        N  0.65248003  0.38678070  0.88433847    -0.34700
N817        N  0.60653047  0.41919697  0.85531127    -0.55300
C818        C  0.54680626  0.36288553  0.89771532     0.28900
C819        C  0.54554814  0.40067495  0.86885544     0.28900
C820        C  0.66777718  0.37651303  0.90714796     0.28900
C821        C  0.66712237  0.41015684  0.87404522     0.28900
C822        C  0.58630737  0.33298272  0.91991293     0.37500
C823        C  0.63284864  0.33886338  0.92457747     0.37500
C824        C  0.58275587  0.42865114  0.84098413     0.37500
C825        C  0.62971555  0.42992380  0.84085759     0.37500
C826        C  0.51818248  0.37189793  0.89619263    -0.20000
C827        C  0.51748069  0.39587883  0.87835501    -0.20000
C828        C  0.69225641  0.39367479  0.91139802    -0.20000
C829        C  0.69191770  0.41480618  0.89037180    -0.20000
C830        C  0.59649570  0.30884278  0.93475313    -0.21000
C831        C  0.62591765  0.31256328  0.93773336    -0.21000
C832        C  0.59081439  0.44574562  0.81758261    -0.21000
C833        C  0.62048819  0.44621821  0.81720691    -0.21000
C834        C  0.55673261  0.33835493  0.91361452    -0.16400
C835        C  0.55376912  0.42276272  0.84893347    -0.16400
C836        C  0.65892144  0.42709039  0.84995851    -0.16400
C837        C  0.66100523  0.35131845  0.92341472    -0.16400
H838        H  0.49951714  0.36235776  0.90672221     0.16500
H839        H  0.49830464  0.40809650  0.87273857     0.16500
H840        H  0.70862714  0.39139268  0.92806546     0.16500
H841        H  0.70784919  0.43197354  0.88777135     0.16500
H842        H  0.58400779  0.29056565  0.94284381     0.14800
H843        H  0.64048686  0.29752786  0.94831521     0.14800
H844        H  0.57676180  0.45640883  0.80210027     0.14800
H845        H  0.63359483  0.45753010  0.80132272     0.14800
H846        H  0.58500259  0.37767229  0.87635940     0.28100
H847        H  0.63402239  0.37746358  0.87522236     0.28100
N848        N  0.38149276  0.37171966  0.70339235    -0.34700
N849        N  0.40248716  0.41130201  0.65869844    -0.55300
N850        N  0.36910356  0.37835085  0.61485544    -0.34700
N851        N  0.34472251  0.34216506  0.66083464    -0.55300
C852        C  0.39698077  0.39058529  0.71989542     0.28900
C853        C  0.36466415  0.35576049  0.72147901     0.28900
C854        C  0.37566180  0.40313145  0.60036833     0.28900
C855        C  0.34616317  0.36598143  0.60115079     0.28900
C856        C  0.42130107  0.41840146  0.68021007     0.37500
C857        C  0.41287285  0.42348945  0.63406637     0.37500
C858        C  0.34047207  0.32455114  0.68401981     0.37500
C859        C  0.33472873  0.32754966  0.63730376     0.37500
C860        C  0.39012380  0.38644456  0.74891034    -0.20000
C861        C  0.36976594  0.36453336  0.74992849    -0.20000
C862        C  0.35669654  0.40656920  0.57727401    -0.20000
C863        C  0.33801417  0.38317179  0.57781862    -0.20000
C864        C  0.44353960  0.43548302  0.66927356    -0.21000
C865        C  0.43820989  0.43873320  0.64006495    -0.21000
C866        C  0.32738153  0.29877014  0.67524164    -0.21000
C867        C  0.32398245  0.30053169  0.64567756    -0.21000
C868        C  0.41827580  0.41033196  0.70973290    -0.16400
C869        C  0.34661315  0.33205884  0.71321521    -0.16400
C870        C  0.33296894  0.33922325  0.60885163    -0.16400
C871        C  0.39923822  0.42192330  0.60649585    -0.16400
H872        H  0.39910858  0.39778879  0.76750943     0.16500
H873        H  0.36046312  0.35568981  0.76958973     0.16500
H874        H  0.35623713  0.42423773  0.56173556     0.16500
H875        H  0.32023756  0.37951866  0.56290406     0.16500
H876        H  0.46173364  0.44460743  0.68108120     0.14800
H877        H  0.45160953  0.45079961  0.62498014     0.14800
H878        H  0.32089324  0.28056922  0.68870780     0.14800
H879        H  0.31440902  0.28383980  0.63203674     0.14800
H880        H  0.38365338  0.36875505  0.68122365     0.28100
H881        H  0.38070776  0.36950741  0.63205836     0.28100
N882        N  0.36927957  0.37590622  0.05312529    -0.34700
N883        N  0.41023467  0.35160913  0.09505134    -0.55300
N884        N  0.37483183  0.37366668  0.14270121    -0.34700
N885        N  0.33620979  0.40152949  0.10080648    -0.55300
C886        C  0.39106499  0.36802875  0.03512496     0.28900
C887        C  0.35165515  0.39394587  0.03810933     0.28900
C888        C  0.39851478  0.36460367  0.15738551     0.28900
C889        C  0.35991339  0.39149724  0.16062019     0.28900
C890        C  0.42073689  0.33956319  0.07039154     0.37500
C891        C  0.42315837  0.33769169  0.11745154     0.37500
C892        C  0.31872216  0.40910712  0.07843758     0.37500
C893        C  0.32175822  0.40780369  0.12557923     0.37500
C894        C  0.38697997  0.38086184  0.00819028    -0.20000
C895        C  0.36214153  0.39715013  0.01004788    -0.20000
C896        C  0.39884582  0.37705214  0.18478121    -0.20000
C897        C  0.37419993  0.39320402  0.18717444    -0.20000
C898        C  0.44081845  0.31830457  0.07712498    -0.21000
C899        C  0.44214306  0.31688356  0.10682470    -0.21000
C900        C  0.29322197  0.42072971  0.08901533    -0.21000
C901        C  0.29513299  0.41996441  0.11879985    -0.21000
C902        C  0.41379511  0.34856176  0.04185355    -0.16400
C903        C  0.32597356  0.40706553  0.04860445    -0.16400
C904        C  0.33304932  0.40486107  0.15414643    -0.16400
C905        C  0.41908818  0.34430097  0.14729849    -0.16400
H906        H  0.40043176  0.37866027  0.98909609     0.16500
H907        H  0.35293561  0.40999577  0.99266555     0.16500
H908        H  0.41500413  0.37467816  0.20162818     0.16500
H909        H  0.36789200  0.40442687  0.20674509     0.16500
H910        H  0.45324420  0.30508033  0.06225043     0.14800
H911        H  0.45566643  0.30209127  0.11900105     0.14800
H912        H  0.27525104  0.42922664  0.07658179     0.14800
H913        H  0.27890262  0.42798514  0.13367557     0.14800
H914        H  0.36587852  0.36832258  0.07401783     0.28100
H915        H  0.36829962  0.36660459  0.12232185     0.28100
N916        N  0.37843419  0.18946685  0.88582756    -0.34700
N917        N  0.34794592  0.14525105  0.85244689    -0.55300
N918        N  0.37995655  0.09945112  0.88312025    -0.34700
N919        N  0.41297562  0.14446656  0.91406489    -0.55300
C920        C  0.36265122  0.20662572  0.86801121     0.28900
C921        C  0.39862240  0.20649142  0.89886970     0.28900
C922        C  0.36882172  0.08404976  0.86058332     0.28900
C923        C  0.40104500  0.08314857  0.89532670     0.28900
C924        C  0.33069780  0.16826225  0.84653115     0.37500
C925        C  0.33400553  0.12128175  0.84249643     0.37500
C926        C  0.42237740  0.16811611  0.92913943     0.37500
C927        C  0.42177869  0.12066209  0.92896570     0.37500
C928        C  0.37289274  0.23503494  0.86981692    -0.20000
C929        C  0.39554196  0.23495064  0.88917064    -0.20000
C930        C  0.38314752  0.05773491  0.85830697    -0.20000
C931        C  0.40274698  0.05674113  0.88066461    -0.20000
C932        C  0.30580773  0.15893104  0.83244984    -0.21000
C933        C  0.30788789  0.12921003  0.82985920    -0.21000
C934        C  0.43800419  0.15929704  0.95323253    -0.21000
C935        C  0.43760810  0.12937742  0.95318366    -0.21000
C936        C  0.33791042  0.19774321  0.85200386    -0.16400
C937        C  0.41781449  0.19761548  0.92121577    -0.16400
C938        C  0.41738782  0.09120265  0.92019951    -0.16400
C939        C  0.34522165  0.09258313  0.84296526    -0.16400
H940        H  0.36460573  0.25413456  0.85894912     0.16500
H941        H  0.40765411  0.25403768  0.89585364     0.16500
H942        H  0.37985004  0.04067758  0.84240337     0.16500
H943        H  0.41632949  0.03826287  0.88497992     0.16500
H944        H  0.28814591  0.17216924  0.82456273     0.14800
H945        H  0.29191066  0.11507047  0.81983578     0.14800
H946        H  0.44871781  0.17297786  0.96916647     0.14800
H947        H  0.44833009  0.11572217  0.96898436     0.14800
H948        H  0.37422052  0.16782791  0.89044717     0.28100
H949        H  0.37245996  0.11924030  0.89090566     0.28100
N950        N  0.19599730  0.37986146  0.88668798    -0.34700
N951        N  0.15541509  0.34562805  0.85231746    -0.55300
N952        N  0.10710936  0.37587317  0.87989511    -0.34700
N953        N  0.14775792  0.40696167  0.91743249    -0.55300
C954        C  0.21416733  0.36050260  0.87414935     0.28900
C955        C  0.21011404  0.39192289  0.90953099     0.28900
C956        C  0.09345439  0.35289146  0.86745341     0.28900
C957        C  0.08935115  0.38638193  0.90069951     0.28900
C958        C  0.18009348  0.33992200  0.83758991     0.37500
C959        C  0.13326966  0.33667163  0.83518920     0.37500
C960        C  0.16997775  0.42256482  0.92886525     0.37500
C961        C  0.12322030  0.42168620  0.92368102     0.37500
C962        C  0.24025906  0.36043092  0.88903757    -0.20000
C963        C  0.23762112  0.38004049  0.91150459    -0.20000
C964        C  0.06701101  0.34839629  0.88090854    -0.20000
C965        C  0.06408409  0.36993510  0.90135128    -0.20000
C966        C  0.17364793  0.32695191  0.81116403    -0.21000
C967        C  0.14402341  0.32494602  0.80959395    -0.21000
C968        C  0.15946847  0.44702913  0.94294523    -0.21000
C969        C  0.12987715  0.44656249  0.93954733    -0.21000
C970        C  0.20837607  0.34449900  0.84849294    -0.16400
C971        C  0.19951748  0.41453532  0.92759523    -0.16400
C972        C  0.09483043  0.41166716  0.91735718    -0.16400
C973        C  0.10365024  0.33711154  0.84321425    -0.16400
H974        H  0.25930239  0.34770163  0.88421772     0.16500
H975        H  0.25426769  0.38518210  0.92729384     0.16500
H976        H  0.05122836  0.33146539  0.87649862     0.16500
H977        H  0.04533294  0.37265984  0.91499030     0.16500
H978        H  0.18870591  0.31944056  0.79483365     0.14800
H979        H  0.13187017  0.31581026  0.79161710     0.14800
H980        H  0.17182689  0.46349465  0.95446627     0.14800
H981        H  0.11497003  0.46239155  0.94834559     0.14800
H982        H  0.17580826  0.38589135  0.87892916     0.28100
H983        H  0.12651556  0.38522873  0.87315891     0.28100
C984        C  0.69992449  0.73101258  0.20796372     0.82100
N985        N  0.72446901  0.71991002  0.19599180    -0.76200
C986        C  0.73838434  0.69723285  0.20878762     0.84600
N987        N  0.72749599  0.68556558  0.23358533    -0.76100
C988        C  0.70294124  0.69620798  0.24573537     0.84700
N989        N  0.68918623  0.71901302  0.23283080    -0.77800
N990        N  0.61550092  0.63053795  0.31373653    -0.34700
N991        N  0.65086905  0.65769151  0.35900098    -0.55300
N992        N  0.62069556  0.62293990  0.40318500    -0.34700
N993        N  0.58863490  0.59281040  0.35693434    -0.55300
C994        C  0.63463606  0.64568941  0.29729621     0.28900
C995        C  0.60185560  0.61112963  0.29611989     0.28900
C996        C  0.64389513  0.63299385  0.41813789     0.28900
C997        C  0.61110906  0.59884739  0.41716238     0.28900
C998        C  0.65763948  0.67551035  0.33654497     0.37500
C999        C  0.66089805  0.67078483  0.38341449     0.37500
C1000       C  0.57160669  0.58649706  0.33370736     0.37500
C1001       C  0.57489665  0.58223440  0.38068746     0.37500
C1002       C  0.63297194  0.63593441  0.26881560    -0.20000
C1003       C  0.61231511  0.61424591  0.26805325    -0.20000
C1004       C  0.64919097  0.61506637  0.44175574    -0.20000
C1005       C  0.62858005  0.59340257  0.44104577    -0.20000
C1006       C  0.67229147  0.69990284  0.34671799    -0.21000
C1007       C  0.67432435  0.69694451  0.37639452    -0.21000
C1008       C  0.54709220  0.57156643  0.34271080    -0.21000
C1009       C  0.54907014  0.56899783  0.37239209    -0.21000
C1010       C  0.65227824  0.66922764  0.30686180    -0.16400
C1011       C  0.57880924  0.59228857  0.30432747    -0.16400
C1012       C  0.58637992  0.58239233  0.40937208    -0.16400
C1013       C  0.65973071  0.65852958  0.41164077    -0.16400
H1014       H  0.64508536  0.64385249  0.25031672     0.16500
H1015       H  0.60557336  0.60253571  0.24878279     0.16500
H1016       H  0.66634073  0.61715741  0.45767868     0.16500
H1017       H  0.62692950  0.57551934  0.45625075     0.16500
H1018       H  0.68080641  0.71785151  0.33405918     0.14800
H1019       H  0.68467555  0.71223056  0.39107542     0.14800
H1020       H  0.52967149  0.56319264  0.32929387     0.14800
H1021       H  0.53327942  0.55839223  0.38618439     0.14800
H1022       H  0.61074530  0.63451609  0.33537175     0.28100
H1023       H  0.61094689  0.63293168  0.38543920     0.28100
C1024       C  0.74235292  0.55969445  0.04401077     0.82100
N1025       N  0.72972121  0.56828432  0.01885515    -0.76200
C1026       C  0.70518208  0.55525838  0.00892334     0.84600
N1027       N  0.69291374  0.53323612  0.02466199    -0.76100
C1028       C  0.70532627  0.52437821  0.05012260     0.84700
N1029       N  0.72991555  0.53787772  0.05974306    -0.77800
C1030       C  0.51279467  0.70479029  0.04797553     0.82100
N1031       N  0.52497616  0.69047223  0.02507048    -0.76200
C1032       C  0.54984946  0.70093918  0.01282720     0.84600
N1033       N  0.56264042  0.72523382  0.02403976    -0.76100
C1034       C  0.55073782  0.73927975  0.04705756     0.84700
N1035       N  0.52575246  0.72911755  0.05864936    -0.77800
C1036       C  0.54719889  0.51299334  0.19952482     0.82100
N1037       N  0.56208394  0.52312943  0.22307754    -0.76200
C1038       C  0.55234727  0.54669170  0.23817456     0.84600
N1039       N  0.52790709  0.56048409  0.22906771    -0.76100
C1040       C  0.51311734  0.55068586  0.20536575     0.84700
N1041       N  0.52283049  0.52688182  0.19085848    -0.77800
N1042       N  0.44529904  0.61812228  0.11898068    -0.34700
N1043       N  0.40169026  0.59429612  0.15814933    -0.55300
N1044       N  0.35882251  0.63309329  0.13314367    -0.34700
N1045       N  0.40371501  0.66073566  0.09759778    -0.55300
C1046       C  0.46222145  0.60225488  0.13700778     0.28900
C1047       C  0.46295386  0.63587741  0.10354211     0.28900
C1048       C  0.34445176  0.62274915  0.15650297     0.28900
C1049       C  0.34586377  0.65821534  0.12552073     0.28900
C1050       C  0.42329982  0.57518077  0.16311821     0.37500
C1051       C  0.37738098  0.58224452  0.16925892     0.37500
C1052       C  0.42550886  0.66593649  0.07862761     0.37500
C1053       C  0.38007948  0.67456177  0.08713870     0.37500
C1054       C  0.49099873  0.60984975  0.13273565    -0.20000
C1055       C  0.49146518  0.63100089  0.11161950    -0.20000
C1056       C  0.32227791  0.64153292  0.16394922    -0.20000
C1057       C  0.32319634  0.66400751  0.14437099    -0.20000
C1058       C  0.41280875  0.55099080  0.17773760    -0.21000
C1059       C  0.38366534  0.55534922  0.18147064    -0.21000
C1060       C  0.41579731  0.68358163  0.05627674    -0.21000
C1061       C  0.38703746  0.68900574  0.06162204    -0.21000
C1062       C  0.45264577  0.58007182  0.15612108    -0.16400
C1063       C  0.45426231  0.65567275  0.08167412    -0.16400
C1064       C  0.35257306  0.67491098  0.10075703    -0.16400
C1065       C  0.35013100  0.59615454  0.17041723    -0.16400
H1066       H  0.50979352  0.60095286  0.14355021     0.16500
H1067       H  0.51066739  0.64164386  0.10323364     0.16500
H1068       H  0.30702742  0.63930951  0.18163511     0.16500
H1069       H  0.30868878  0.68244561  0.14394640     0.16500
H1070       H  0.42489838  0.53220894  0.18499429     0.14800
H1071       H  0.36891766  0.54049609  0.19223140     0.14800
H1072       H  0.42809035  0.69162986  0.03795020     0.14800
H1073       H  0.37292190  0.70201019  0.04813479     0.14800
H1074       H  0.42313438  0.61592565  0.11620218     0.28100
H1075       H  0.37514616  0.62255587  0.12180445     0.28100
N1076       N  0.62757334  0.44950879  0.12058057    -0.34700
N1077       N  0.65128078  0.40637435  0.08077748    -0.55300
N1078       N  0.62269948  0.35944709  0.11356397    -0.34700
N1079       N  0.59438973  0.40330253  0.14967659    -0.55300
C1080       C  0.63860896  0.46752041  0.09999773     0.28900
C1081       C  0.61044850  0.46563221  0.13809751     0.28900
C1082       C  0.63216822  0.34515427  0.08972939     0.28900
C1083       C  0.60019716  0.34390035  0.12437919     0.28900
C1084       C  0.66606786  0.43034838  0.07185402     0.37500
C1085       C  0.66554383  0.38298266  0.07011048     0.37500
C1086       C  0.58946956  0.42550469  0.16843182     0.37500
C1087       C  0.58465887  0.37867823  0.16270796     0.37500
C1088       C  0.62853582  0.49554626  0.10470695    -0.20000
C1089       C  0.61095545  0.49440082  0.12882777    -0.20000
C1090       C  0.61546316  0.32036936  0.08525116    -0.20000
C1091       C  0.59527186  0.31957214  0.10712530    -0.20000
C1092       C  0.68956792  0.42221906  0.05518664    -0.21000
C1093       C  0.68953577  0.39231946  0.05442222    -0.21000
C1094       C  0.57632519  0.41494067  0.19336156    -0.21000
C1095       C  0.57321288  0.38533475  0.18971307    -0.21000
C1096       C  0.65840076  0.45958763  0.07783155    -0.16400
C1097       C  0.59524640  0.45537028  0.16283450    -0.16400
C1098       C  0.58476805  0.35048870  0.15003187    -0.16400
C1099       C  0.65606812  0.35353277  0.07251682    -0.16400
H1100       H  0.63353280  0.51491384  0.09225925     0.16500
H1101       H  0.59975180  0.51270858  0.13838115     0.16500
H1102       H  0.61732910  0.30467054  0.06780405     0.16500
H1103       H  0.57871339  0.30303778  0.10984959     0.16500
H1104       H  0.70540265  0.43636677  0.04504284     0.14800
H1105       H  0.70546661  0.37915046  0.04339491     0.14800
H1106       H  0.56950679  0.42730229  0.21215949     0.14800
H1107       H  0.56369508  0.37041664  0.20522970     0.14800
H1108       H  0.63241147  0.42769110  0.12346683     0.28100
H1109       H  0.63222047  0.37784862  0.12278601     0.28100
N1110       N  0.61221894  0.61230711  0.94270550    -0.34700
N1111       N  0.57911359  0.64526524  0.89993596    -0.55300
N1112       N  0.61629169  0.62286203  0.85376256    -0.34700
N1113       N  0.64746834  0.58742166  0.89647146    -0.55300
C1114       C  0.59072803  0.62274497  0.95972665     0.28900
C1115       C  0.62574236  0.59091237  0.95767878     0.28900
C1116       C  0.59419463  0.63407456  0.83804285     0.28900
C1117       C  0.63086253  0.60444284  0.83615068     0.28900
C1118       C  0.56867192  0.65761168  0.92451365     0.37500
C1119       C  0.56969345  0.66170428  0.87745386     0.37500
C1120       C  0.66135778  0.57573425  0.91962844     0.37500
C1121       C  0.66410169  0.58233243  0.87282372     0.37500
C1122       C  0.59077468  0.60801582  0.98599785    -0.20000
C1123       C  0.61274935  0.58795024  0.98470041    -0.20000
C1124       C  0.59447412  0.62235297  0.81035691    -0.20000
C1125       C  0.61795859  0.60441732  0.80885149    -0.20000
C1126       C  0.55212165  0.68171323  0.91755761    -0.21000
C1127       C  0.55292181  0.68443818  0.88789284    -0.21000
C1128       C  0.68667095  0.56250699  0.91048996    -0.21000
C1129       C  0.68849151  0.56680071  0.88096154    -0.21000
C1130       C  0.57237412  0.64646855  0.95300364    -0.16400
C1131       C  0.65065768  0.57537459  0.94857977    -0.16400
C1132       C  0.65635073  0.58912776  0.84372433    -0.16400
C1133       C  0.57462076  0.65559002  0.84759193    -0.16400
H1134       H  0.57669482  0.61156116  0.00441342     0.16500
H1135       H  0.61873804  0.57323471  0.00201655     0.16500
H1136       H  0.57942233  0.62624744  0.79279025     0.16500
H1137       H  0.62424995  0.59298916  0.78941958     0.16500
H1138       H  0.54042982  0.69581755  0.93222367     0.14800
H1139       H  0.54224984  0.70132991  0.87556347     0.14800
H1140       H  0.70204700  0.55059231  0.92358484     0.14800
H1141       H  0.70543836  0.55861195  0.86700409     0.14800
H1142       H  0.61839602  0.62061534  0.92275729     0.28100
H1143       H  0.62226910  0.62884925  0.87469432     0.28100
N1144       N  0.80985535  0.63275980  0.12414840    -0.34700
N1145       N  0.85184199  0.67167878  0.15172897    -0.55300
N1146       N  0.89897927  0.63668716  0.12746174    -0.34700
N1147       N  0.85684884  0.59986838  0.09730562    -0.55300
C1148       C  0.79196621  0.65378282  0.13416803     0.28900
C1149       C  0.79446012  0.61580955  0.10555918     0.28900
C1150       C  0.91357217  0.66035925  0.13727055     0.28900
C1151       C  0.91652792  0.62264067  0.10857912     0.28900
C1152       C  0.82745001  0.68123969  0.16487901     0.37500
C1153       C  0.87445210  0.68326531  0.16656820     0.37500
C1154       C  0.83420448  0.58239538  0.08997862     0.37500
C1155       C  0.88132094  0.58472954  0.09164664     0.37500
C1156       C  0.76476517  0.65005630  0.12191495    -0.20000
C1157       C  0.76628516  0.62612119  0.10400368    -0.20000
C1158       C  0.94042876  0.66175409  0.12408021    -0.20000
C1159       C  0.94267073  0.63763561  0.10672451    -0.20000
C1160       C  0.83456085  0.69947491  0.18781969    -0.21000
C1161       C  0.86423120  0.70054089  0.18910609    -0.21000
C1162       C  0.84432498  0.55629333  0.07894566    -0.21000
C1163       C  0.87403377  0.55773731  0.07994816    -0.21000
C1164       C  0.79883820  0.67485844  0.15565952    -0.16400
C1165       C  0.80454483  0.59015121  0.09164968    -0.16400
C1166       C  0.91008143  0.59560517  0.09500395    -0.16400
C1167       C  0.90408910  0.67958005  0.15924277    -0.16400
H1168       H  0.74556249  0.66285227  0.12590693     0.16500
H1169       H  0.74834727  0.61715782  0.09174086     0.16500
H1170       H  0.95709336  0.67816033  0.12696433     0.16500
H1171       H  0.96194501  0.63214074  0.09484247     0.16500
H1172       H  0.81995979  0.71083569  0.20222191     0.14800
H1173       H  0.87665262  0.71274560  0.20496026     0.14800
H1174       H  0.83164285  0.53816786  0.07072951     0.14800
H1175       H  0.88845951  0.54087584  0.07237368     0.14800
H1176       H  0.83082796  0.62902616  0.13106439     0.28100
H1177       H  0.87908532  0.62933258  0.13498971     0.28100
N1178       N  0.64070194  0.80080000  0.11393536    -0.34700
N1179       N  0.67100065  0.84322121  0.14920379    -0.55300
N1180       N  0.64049118  0.88994074  0.11851984    -0.34700
N1181       N  0.61293164  0.84777774  0.08095032    -0.55300
C1182       C  0.66028891  0.78342071  0.12731246     0.28900
C1183       C  0.62978695  0.78582811  0.09100444     0.28900
C1184       C  0.66264157  0.90427702  0.13128565     0.28900
C1185       C  0.63161572  0.90673126  0.09617318     0.28900
C1186       C  0.67871160  0.81898121  0.16394573     0.37500
C1187       C  0.67915347  0.86627054  0.16563593     0.37500
C1188       C  0.59816141  0.82468349  0.07017441     0.37500
C1189       C  0.59830155  0.87189568  0.07276674     0.37500
C1190       C  0.66155107  0.75692814  0.11283167    -0.20000
C1191       C  0.64235809  0.75843781  0.08998798    -0.20000
C1192       C  0.66819108  0.93012388  0.11663339    -0.20000
C1193       C  0.64847436  0.93170720  0.09445544    -0.20000
C1194       C  0.69229435  0.82674398  0.18972850    -0.21000
C1195       C  0.69237584  0.85670369  0.19089518    -0.21000
C1196       C  0.57424625  0.83426195  0.05465474    -0.21000
C1197       C  0.57422139  0.86416152  0.05650641    -0.21000
C1198       C  0.67580275  0.79019442  0.15312723    -0.16400
C1199       C  0.60722065  0.79532449  0.07240282    -0.16400
C1200       C  0.60766721  0.90072304  0.07831315    -0.16400
C1201       C  0.67657808  0.89569615  0.15704749    -0.16400
H1202       H  0.67463867  0.73823036  0.11831426     0.16500
H1203       H  0.63790366  0.74108525  0.07465585     0.16500
H1204       H  0.68466556  0.94626667  0.12151584     0.16500
H1205       H  0.64675361  0.94922442  0.07883960     0.16500
H1206       H  0.70161308  0.81245119  0.20585089     0.14800
H1207       H  0.70162554  0.86987724  0.20811044     0.14800
H1208       H  0.55856066  0.82121607  0.04289821     0.14800
H1209       H  0.55849600  0.87850226  0.04666251     0.14800
H1210       H  0.63377723  0.82106055  0.12101109     0.28100
H1211       H  0.63062336  0.87094397  0.12600529     0.28100
O1212       O  0.72345073  0.47946808  0.68181830    -0.76600
C1213       C  0.77715175  0.55917013  0.69559032     0.84500
O1214       O  0.80153874  0.45339006  0.74726630    -0.77700
O1215       O  0.78217555  0.55296155  0.78190265    -0.79200
O1216       O  0.68142115  0.52510469  0.76531912    -0.79000
O1217       O  0.69159185  0.46897294  0.71650929    -0.77600
Zn1218     Zn  0.75648339  0.49710581  0.70555988     1.55700
O1219       O  0.71383761  0.55977217  0.77549042    -0.79000
Cd1220     Cd  0.70753485  0.49209194  0.75098660     1.59700
Cd1221     Cd  0.77457169  0.48049559  0.77275498     1.59600
O1222       O  0.70530273  0.46506439  0.78494930    -0.79000
O1223       O  0.74814101  0.50335692  0.74569304    -1.89500
Cd1224     Cd  0.75004290  0.54583679  0.75315970     1.59900
O1225       O  0.74940521  0.45514302  0.80177217    -0.78900
O1226       O  0.76404900  0.56977244  0.71750536    -0.77600
C1227       C  0.80322376  0.45249762  0.71953160     0.84900
C1228       C  0.70061098  0.46649469  0.69056283     0.84600
O1229       O  0.77511643  0.53236896  0.68880058    -0.76600
C1230       C  0.68877275  0.54841374  0.77840088     0.85400
O1231       O  0.78715874  0.46806116  0.70353502    -0.76600
C1232       C  0.72183930  0.45282197  0.80313489     0.85500
C1233       C  0.79943564  0.53836987  0.79753689     0.85900
O1234       O  0.79965443  0.51045867  0.79731266    -0.79100
O1235       O  0.93939902  0.02430524  0.46840626    -0.76600
C1236       C  0.95132926  0.94238165  0.52507259     0.84500
O1237       O  0.00003343  0.05221832  0.54375062    -0.77700
O1238       O  0.03459884  0.95233039  0.53339756    -0.79200
O1239       O  0.02430600  0.96669465  0.42949687    -0.79000
O1240       O  0.97140736  0.02163723  0.43226445    -0.77600
Zn1241     Zn  0.95992961  0.00403205  0.50201908     1.55700
O1242       O  0.03408706  0.93893452  0.46762047    -0.79000
Cd1243     Cd  0.00587647  0.00176158  0.45146944     1.59700
Cd1244     Cd  0.02617013  0.02322426  0.51867342     1.59600
O1245       O  0.03689471  0.03180204  0.44692962    -0.79000
O1246       O  0.00000286  0.99756972  0.49374279    -1.89500
Cd1247     Cd  0.00853864  0.95626501  0.49938929     1.59900
O1248       O  0.05409709  0.04631559  0.48998012    -0.78900
O1249       O  0.97347680  0.93253430  0.51207676    -0.77600
C1250       C  0.97244668  0.05149869  0.54668224     0.84900
C1251       C  0.94798486  0.03129001  0.44297123     0.84600
O1252       O  0.94276025  0.96858621  0.52186876    -0.76600
C1253       C  0.03802078  0.94577925  0.44123280     0.85400
O1254       O  0.95704279  0.03368315  0.53230618    -0.76600
C1255       C  0.05408231  0.04709850  0.46212039     0.85500
C1256       C  0.05011544  0.96831712  0.54953996     0.85900
O1257       O  0.05016877  0.99616401  0.54745089    -0.79100
C1258       C  0.54685230  0.06056262  0.73760375     0.82100
N1259       N  0.55989495  0.03621223  0.72719064    -0.76200
C1260       C  0.54962131  0.02276512  0.70293147     0.84600
N1261       N  0.52588641  0.03365203  0.68921332    -0.76100
C1262       C  0.51253014  0.05784945  0.69968200     0.84700
N1263       N  0.52336025  0.07137857  0.72363109    -0.77800
C1264       C  0.74077889  0.05390113  0.54707761     0.82100
N1265       N  0.72864294  0.03121806  0.56189090    -0.76200
C1266       C  0.70388248  0.01820124  0.55201322     0.84600
N1267       N  0.69095886  0.02851072  0.52745902    -0.76100
C1268       C  0.70294717  0.05122828  0.51263029     0.84700
N1269       N  0.72780838  0.06362818  0.52251538    -0.77800
C1270       C  0.53844260  0.23834187  0.54617365     0.82100
N1271       N  0.51318740  0.22639218  0.55557291    -0.76200
C1272       C  0.50284884  0.20131371  0.54364680     0.84600
N1273       N  0.51777627  0.18834898  0.52176051    -0.76100
C1274       C  0.54288770  0.20027772  0.51182205     0.84700
N1275       N  0.55334226  0.22508730  0.52437128    -0.77800
N1276       N  0.60774378  0.11101385  0.44609391    -0.34700
N1277       N  0.64860598  0.08792662  0.40373131    -0.55300
N1278       N  0.61697003  0.11825864  0.35749988    -0.34700
N1279       N  0.57883988  0.14432703  0.40008665    -0.55300
C1280       C  0.62646320  0.09726934  0.46403919     0.28900
C1281       C  0.59159574  0.12928977  0.46247267     0.28900
C1282       C  0.64127761  0.11023632  0.34336326     0.28900
C1283       C  0.60365537  0.13855390  0.34094240     0.28900
C1284       C  0.65569283  0.07098472  0.42668720     0.37500
C1285       C  0.66166534  0.07622398  0.38019357     0.37500
C1286       C  0.56110904  0.15023066  0.42267820     0.37500
C1287       C  0.56449884  0.15188300  0.37557012     0.37500
C1288       C  0.62179583  0.10651132  0.49233646    -0.20000
C1289       C  0.59990226  0.12670538  0.49135562    -0.20000
C1290       C  0.64364647  0.12578854  0.31773126    -0.20000
C1291       C  0.61965090  0.14291678  0.31574839    -0.20000
C1292       C  0.67360669  0.04857968  0.41772056    -0.21000
C1293       C  0.67739672  0.05189486  0.38829106    -0.21000
C1294       C  0.53548134  0.16205369  0.41250760    -0.21000
C1295       C  0.53754330  0.16295135  0.38270290    -0.21000
C1296       C  0.64712118  0.07606120  0.45580946    -0.16400
C1297       C  0.56843973  0.14687318  0.45239041    -0.16400
C1298       C  0.57655242  0.15147672  0.34723279    -0.16400
C1299       C  0.66022676  0.08765008  0.35166611    -0.16400
H1300       H  0.63296702  0.09943387  0.51175042     0.16500
H1301       H  0.59087056  0.13779911  0.50997637     0.16500
H1302       H  0.66053028  0.12445086  0.30153419     0.16500
H1303       H  0.61490830  0.15630613  0.29715025     0.16500
H1304       H  0.68290997  0.03155256  0.43096947     0.14800
H1305       H  0.69012150  0.03784788  0.37445102     0.14800
H1306       H  0.51723345  0.16939602  0.42522845     0.14800
H1307       H  0.52127347  0.17141443  0.36808454     0.14800
H1308       H  0.60527852  0.10711476  0.42410558     0.28100
H1309       H  0.60884334  0.10881348  0.37625073     0.28100
N1310       N  0.44028552  0.10999445  0.60714026    -0.34700
N1311       N  0.39361380  0.13821512  0.57515169    -0.55300
N1312       N  0.35145962  0.11261845  0.61511983    -0.34700
N1313       N  0.39819973  0.08115952  0.64446345    -0.55300
C1314       C  0.45540374  0.12187861  0.58492921     0.28900
C1315       C  0.45763719  0.09031788  0.62032885     0.28900
C1316       C  0.33400165  0.12141208  0.59320365     0.28900
C1317       C  0.33644084  0.09262074  0.63060294     0.28900
C1318       C  0.41638736  0.15276351  0.56353843     0.37500
C1319       C  0.36940853  0.15187618  0.56589762     0.37500
C1320       C  0.42273231  0.07198558  0.65762886     0.37500
C1321       C  0.37600093  0.07395827  0.66220689     0.37500
C1322       C  0.48287319  0.10979342  0.58416882    -0.20000
C1323       C  0.48424129  0.08985056  0.60639177    -0.20000
C1324       C  0.30769472  0.10683937  0.59482664    -0.20000
C1325       C  0.30919331  0.08874848  0.61845819    -0.20000
C1326       C  0.40655827  0.17550568  0.54644479    -0.21000
C1327       C  0.37685904  0.17498357  0.54796890    -0.21000
C1328       C  0.41600051  0.05841987  0.68366509    -0.21000
C1329       C  0.38645283  0.05981929  0.68664507    -0.21000
C1330       C  0.44580382  0.14466308  0.56658862    -0.16400
C1331       C  0.45094427  0.07430079  0.64576685    -0.16400
C1332       C  0.34633295  0.07810841  0.65573279    -0.16400
C1333       C  0.34068733  0.14303884  0.57240414    -0.16400
H1334       H  0.50033930  0.11501760  0.56940304     0.16500
H1335       H  0.50296284  0.07691032  0.61195719     0.16500
H1336       H  0.28934015  0.10882210  0.58034427     0.16500
H1337       H  0.29222850  0.07407778  0.62558760     0.16500
H1338       H  0.41937037  0.19072177  0.53387618     0.14800
H1339       H  0.36246871  0.18994542  0.53704649     0.14800
H1340       H  0.43074455  0.04832909  0.69886445     0.14800
H1341       H  0.37407503  0.05104723  0.70458635     0.14800
H1342       H  0.41994815  0.11636182  0.61396849     0.28100
H1343       H  0.37182479  0.12087859  0.62020506     0.28100
C1344       C  0.70582834  0.19443190  0.73487147     0.82100
N1345       N  0.73017216  0.18575857  0.72084739    -0.76200
C1346       C  0.73915876  0.19967687  0.69636720     0.84600
N1347       N  0.72347477  0.22234507  0.68586900    -0.76100
C1348       C  0.69922612  0.23141724  0.69991489     0.84700
N1349       N  0.69042349  0.21725405  0.72426569    -0.77800
N1350       N  0.62973595  0.30183633  0.61743642    -0.34700
N1351       N  0.59073735  0.34590634  0.59439356    -0.55300
N1352       N  0.62325318  0.39129427  0.62583394    -0.34700
N1353       N  0.65888176  0.34595959  0.65266728    -0.55300
C1354       C  0.61054954  0.28462407  0.60315336     0.28900
C1355       C  0.64555876  0.28450256  0.63509118     0.28900
C1356       C  0.59899676  0.40583934  0.61821810     0.28900
C1357       C  0.63515146  0.40576771  0.64853670     0.28900
C1358       C  0.58363302  0.32338979  0.57659905     0.37500
C1359       C  0.57949690  0.37023448  0.58228709     0.37500
C1360       C  0.67626041  0.32301874  0.65837784     0.37500
C1361       C  0.67272679  0.36992779  0.66282890     0.37500
C1362       C  0.61426975  0.25592748  0.61177550    -0.20000
C1363       C  0.63633846  0.25584092  0.63186994    -0.20000
C1364       C  0.59541603  0.42968743  0.63635721    -0.20000
C1365       C  0.61834723  0.42975138  0.65537698    -0.20000
C1366       C  0.56760176  0.33341467  0.55326159    -0.21000
C1367       C  0.56499154  0.36300213  0.55681905    -0.21000
C1368       C  0.70109944  0.33243736  0.67256397    -0.21000
C1369       C  0.69889183  0.36215786  0.67533342    -0.21000
C1370       C  0.59089455  0.29379064  0.58139490    -0.16400
C1371       C  0.66931805  0.29352352  0.65250792    -0.16400
C1372       C  0.66118073  0.39840035  0.66276978    -0.16400
C1373       C  0.58063598  0.39858783  0.59471670    -0.16400
H1374       H  0.60251390  0.23692549  0.60415913     0.16500
H1375       H  0.64487931  0.23669845  0.64249160     0.16500
H1376       H  0.57794506  0.44529044  0.63620950     0.16500
H1377       H  0.62198539  0.44545732  0.67257687     0.16500
H1378       H  0.55885851  0.32080092  0.53538116     0.14800
H1379       H  0.55382991  0.37751499  0.54211932     0.14800
H1380       H  0.71886181  0.31925531  0.68031648     0.14800
H1381       H  0.71462423  0.37636938  0.68563759     0.14800
H1382       H  0.63302378  0.32388260  0.61393455     0.28100
H1383       H  0.63203045  0.37342409  0.61516790     0.28100
N1384       N  0.61487766  0.95099377  0.61611765    -0.34700
N1385       N  0.64573825  0.90379672  0.58799143    -0.55300
N1386       N  0.61319912  0.86137129  0.62334098    -0.34700
N1387       N  0.58521658  0.90903826  0.65397672    -0.55300
C1388       C  0.63481432  0.96676475  0.60121559     0.28900
C1389       C  0.60105368  0.96936540  0.63436492     0.28900
C1390       C  0.63388718  0.84438978  0.61146376     0.28900
C1391       C  0.60338214  0.84750756  0.64738348     0.28900
C1392       C  0.65514965  0.92622865  0.57127874     0.37500
C1393       C  0.65272825  0.87887235  0.57395538     0.37500
C1394       C  0.56959882  0.93313932  0.66010154     0.37500
C1395       C  0.57066530  0.88616002  0.66552640     0.37500
C1396       C  0.63338512  0.99566019  0.61009222    -0.20000
C1397       C  0.61214838  0.99727385  0.63093809    -0.20000
C1398       C  0.63682492  0.81928369  0.62805414    -0.20000
C1399       C  0.61833115  0.82174136  0.65107686    -0.20000
C1400       C  0.66883275  0.91544513  0.54678757    -0.21000
C1401       C  0.66718743  0.88552819  0.54839471    -0.21000
C1402       C  0.54517673  0.92559665  0.67588453    -0.21000
C1403       C  0.54582024  0.89588733  0.67930804    -0.21000
C1404       C  0.65269895  0.95625024  0.57841843    -0.16400
C1405       C  0.57762287  0.96203342  0.65282691    -0.16400
C1406       C  0.58034062  0.85687247  0.66517520    -0.16400
C1407       C  0.64866406  0.85031568  0.58515060    -0.16400
H1408       H  0.64582000  0.01396638  0.60205138     0.16500
H1409       H  0.60540544  0.01690217  0.64203479     0.16500
H1410       H  0.65060725  0.80073818  0.62458150     0.16500
H1411       H  0.61626950  0.80605649  0.66846258     0.16500
H1412       H  0.67910499  0.92780871  0.52962250     0.14800
H1413       H  0.67627535  0.87044581  0.53283564     0.14800
H1414       H  0.52862534  0.94000081  0.68413764     0.14800
H1415       H  0.52969372  0.88299065  0.69055847     0.14800
H1416       H  0.60963925  0.92928874  0.61291966     0.28100
H1417       H  0.60498128  0.88036724  0.61434800     0.28100
N1418       N  0.81215507  0.12104959  0.63190807    -0.34700
N1419       N  0.85590594  0.09022319  0.59818663    -0.55300
N1420       N  0.90221037  0.12176605  0.62818966    -0.34700
N1421       N  0.85801805  0.14918384  0.66528864    -0.55300
C1422       C  0.79576744  0.09959730  0.61994400     0.28900
C1423       C  0.79671029  0.13270475  0.65397049     0.28900
C1424       C  0.91730452  0.10036672  0.61477338     0.28900
C1425       C  0.91822251  0.13079503  0.65118154     0.28900
C1426       C  0.83164969  0.08151090  0.58390119     0.37500
C1427       C  0.87867382  0.08309175  0.58114577     0.37500
C1428       C  0.83507982  0.16410172  0.67584381     0.37500
C1429       C  0.88205191  0.16290796  0.67527292     0.37500
C1430       C  0.76940683  0.09801275  0.63430120    -0.20000
C1431       C  0.76998063  0.11893285  0.65568783    -0.20000
C1432       C  0.94312369  0.09583850  0.62944099    -0.20000
C1433       C  0.94375025  0.11509436  0.65230150    -0.20000
C1434       C  0.83902293  0.06869171  0.55772621    -0.21000
C1435       C  0.86867461  0.07000936  0.55579245    -0.21000
C1436       C  0.84455121  0.18728268  0.69270849    -0.21000
C1437       C  0.87428117  0.18655363  0.69235181    -0.21000
C1438       C  0.80326744  0.08246780  0.59550418    -0.16400
C1439       C  0.80575454  0.15586951  0.67220855    -0.16400
C1440       C  0.91082045  0.15327753  0.67083213    -0.16400
C1441       C  0.90826297  0.08493659  0.58965881    -0.16400
H1442       H  0.75145049  0.08345657  0.62976352     0.16500
H1443       H  0.75270301  0.12335641  0.67089489     0.16500
H1444       H  0.95956540  0.07982233  0.62478846     0.16500
H1445       H  0.96084967  0.11685785  0.66831214     0.16500
H1446       H  0.82464682  0.05901754  0.54180172     0.14800
H1447       H  0.88140228  0.06158491  0.53797540     0.14800
H1448       H  0.83140938  0.20286198  0.70435334     0.14800
H1449       H  0.88851099  0.20161169  0.70360776     0.14800
H1450       H  0.83220925  0.12826310  0.62466248     0.28100
H1451       H  0.88264163  0.13055855  0.62135737     0.28100
N1452       N  0.62599218  0.12485754  0.80885572    -0.34700
N1453       N  0.60462934  0.08743342  0.85545083    -0.55300
N1454       N  0.63639269  0.12259555  0.89789087    -0.34700
N1455       N  0.66136205  0.15666490  0.85050517    -0.55300
C1456       C  0.61390243  0.10294192  0.79326734     0.28900
C1457       C  0.64377746  0.13978746  0.79079363     0.28900
C1458       C  0.62899330  0.09901638  0.91379703     0.28900
C1459       C  0.65952822  0.13500445  0.91109649     0.28900
C1460       C  0.58799538  0.07731392  0.83337031     0.37500
C1461       C  0.59323822  0.07648601  0.88022813     0.37500
C1462       C  0.66524015  0.17383808  0.82696152     0.37500
C1463       C  0.67117727  0.17201143  0.87359174     0.37500
C1464       C  0.62399118  0.10411041  0.76490755    -0.20000
C1465       C  0.64271961  0.12742504  0.76332236    -0.20000
C1466       C  0.64757050  0.09635785  0.93729846    -0.20000
C1467       C  0.66701629  0.11898800  0.93548148    -0.20000
C1468       C  0.56611920  0.05962168  0.84412096    -0.21000
C1469       C  0.56934766  0.05919287  0.87381118    -0.21000
C1470       C  0.67779564  0.20009448  0.83502780    -0.21000
C1471       C  0.68145883  0.19901314  0.86459457    -0.21000
C1472       C  0.59314413  0.08262129  0.80355952    -0.16400
C1473       C  0.65964530  0.16519324  0.79807902    -0.16400
C1474       C  0.67323528  0.16101199  0.90220665    -0.16400
C1475       C  0.60520283  0.08049579  0.90830366    -0.16400
H1476       H  0.61840297  0.08971223  0.74710046     0.16500
H1477       H  0.65417224  0.13445192  0.74406316     0.16500
H1478       H  0.64734142  0.07963703  0.95385542     0.16500
H1479       H  0.68475130  0.12298411  0.95036158     0.16500
H1480       H  0.54962183  0.04813623  0.83184394     0.14800
H1481       H  0.55580131  0.04724551  0.88885744     0.14800
H1482       H  0.68397317  0.21800780  0.82103857     0.14800
H1483       H  0.69090104  0.21608918  0.87785797     0.14800
H1484       H  0.62111516  0.13029354  0.83016960     0.28100
H1485       H  0.62520838  0.13070965  0.88004875     0.28100
C1486       C  0.01866513  0.69369313  0.54603602     0.82100
N1487       N  0.02651981  0.71729478  0.56228704    -0.76200
C1488       C  0.05052363  0.73308834  0.55538237     0.84600
N1489       N  0.06674856  0.72505496  0.53214553    -0.76100
C1490       C  0.05922638  0.70158137  0.51578822     0.84700
N1491       N  0.03523662  0.68581192  0.52293495    -0.77800
N1492       N  0.13846633  0.63307454  0.44232969    -0.34700
N1493       N  0.17643838  0.61055518  0.39679878    -0.55300
N1494       N  0.13805199  0.63507391  0.35218832    -0.34700
N1495       N  0.10279709  0.66080557  0.39853321    -0.55300
C1496       C  0.16032438  0.62291213  0.45901717     0.28900
C1497       C  0.12014785  0.64789868  0.45982322     0.28900
C1498       C  0.16149072  0.62763770  0.33637719     0.28900
C1499       C  0.12431217  0.65645506  0.33748505     0.28900
C1500       C  0.18828851  0.59713373  0.42018045     0.37500
C1501       C  0.18717844  0.59726159  0.37286612     0.37500
C1502       C  0.08530620  0.66462223  0.42180188     0.37500
C1503       C  0.08731994  0.66849359  0.37483474     0.37500
C1504       C  0.15571924  0.63124667  0.48762670    -0.20000
C1505       C  0.13037220  0.64679527  0.48816629    -0.20000
C1506       C  0.16266610  0.64432544  0.31134855    -0.20000
C1507       C  0.13929203  0.66267748  0.31213047    -0.20000
C1508       C  0.20710656  0.57562543  0.41104542    -0.21000
C1509       C  0.20612870  0.57539218  0.38123600    -0.21000
C1510       C  0.05866844  0.67507393  0.41283476    -0.21000
C1511       C  0.05992481  0.67751557  0.38315476    -0.21000
C1512       C  0.18302368  0.60442413  0.44969374    -0.16400
C1513       C  0.09358488  0.66071186  0.45117472    -0.16400
C1514       C  0.09826192  0.66987058  0.34610393    -0.16400
C1515       C  0.18142701  0.60567442  0.34366483    -0.16400
H1516       H  0.16877435  0.62598092  0.50642207     0.16500
H1517       H  0.12045551  0.65565272  0.50749095     0.16500
H1518       H  0.17900761  0.64377307  0.29454436     0.16500
H1519       H  0.13424335  0.67897298  0.29597298     0.16500
H1520       H  0.22004307  0.56132323  0.42440952     0.14800
H1521       H  0.21819602  0.56068114  0.36751809     0.14800
H1522       H  0.04033720  0.68073919  0.42627449     0.14800
H1523       H  0.04264641  0.68524856  0.36930258     0.14800
H1524       H  0.13534737  0.62868434  0.42052993     0.28100
H1525       H  0.13112588  0.62502676  0.37119838     0.28100
C1526       C  0.24043001  0.70691007  0.70562886     0.82100
N1527       N  0.22502201  0.69341626  0.72710436    -0.76200
C1528       C  0.19958936  0.70518255  0.73652314     0.84600
N1529       N  0.18947372  0.72988233  0.72390467    -0.76100
C1530       C  0.20477455  0.74351962  0.70270273     0.84700
N1531       N  0.23023347  0.73196053  0.69378118    -0.77800
C1532       C  0.20235112  0.51422996  0.54439992     0.82100
N1533       N  0.19522269  0.52547117  0.51816846    -0.76200
C1534       C  0.20745119  0.55069242  0.50868512     0.84600
N1535       N  0.22760218  0.56458792  0.52559832    -0.76100
C1536       C  0.23512797  0.55314533  0.55191474     0.84700
N1537       N  0.22204766  0.52833962  0.56128128    -0.77800
N1538       N  0.30589017  0.62377248  0.62955452    -0.34700
N1539       N  0.35240272  0.60334697  0.59172521    -0.55300
N1540       N  0.39615176  0.62996140  0.62991799    -0.34700
N1541       N  0.34878908  0.65522368  0.66409710    -0.55300
C1542       C  0.29032475  0.61522507  0.60602780     0.28900
C1543       C  0.28852317  0.64075352  0.64604855     0.28900
C1544       C  0.41211976  0.62236099  0.60652620     0.28900
C1545       C  0.40989335  0.65260258  0.64297827     0.28900
C1546       C  0.32953553  0.58906856  0.57972290     0.37500
C1547       C  0.37654788  0.58993317  0.58187931     0.37500
C1548       C  0.32531825  0.65883423  0.68138193     0.37500
C1549       C  0.37209086  0.66411042  0.67972307     0.37500
C1550       C  0.26267313  0.62675087  0.60778548    -0.20000
C1551       C  0.26147359  0.64263874  0.63311427    -0.20000
C1552       C  0.43629985  0.64018510  0.60464769    -0.20000
C1553       C  0.43471639  0.65954567  0.62743222    -0.20000
C1554       C  0.33916223  0.56669436  0.56206630    -0.21000
C1555       C  0.36882853  0.56701282  0.56364688    -0.21000
C1556       C  0.33371809  0.67002908  0.70804052    -0.21000
C1557       C  0.36325679  0.67339205  0.70701405    -0.21000
C1558       C  0.30005946  0.59648216  0.58356710    -0.16400
C1559       C  0.29620749  0.65423091  0.67268025    -0.16400
C1560       C  0.40081685  0.66647451  0.66890705    -0.16400
C1561       C  0.40540921  0.59958990  0.58701585    -0.16400
H1562       H  0.24512025  0.62410840  0.59239981     0.16500
H1563       H  0.24288380  0.65458347  0.64088917     0.16500
H1564       H  0.45292313  0.63981547  0.58811716     0.16500
H1565       H  0.44994713  0.67703287  0.63160690     0.16500
H1566       H  0.32615182  0.55153523  0.54952733     0.14800
H1567       H  0.38301794  0.55214273  0.55234539     0.14800
H1568       H  0.31995915  0.67558846  0.72620387     0.14800
H1569       H  0.37665896  0.68193315  0.72438401     0.14800
H1570       H  0.32678144  0.61738184  0.63477772     0.28100
H1571       H  0.37758985  0.61932909  0.63721190     0.28100
C1572       C  0.05314058  0.55115891  0.73761928     0.82100
N1573       N  0.06107666  0.52642369  0.72359914    -0.76200
C1574       C  0.04625189  0.51710354  0.69979288     0.84600
N1575       N  0.02331586  0.53266645  0.69013152    -0.76100
C1576       C  0.01516663  0.55748899  0.70395427     0.84700
N1577       N  0.03029303  0.56681892  0.72755816    -0.77800
N1578       N  0.12998099  0.44822519  0.63107724    -0.34700
N1579       N  0.09081990  0.40420969  0.65449522    -0.55300
N1580       N  0.12025000  0.36017743  0.61954386    -0.34700
N1581       N  0.15553476  0.40512112  0.59212790    -0.55300
C1582       C  0.11148780  0.46523397  0.64618650     0.28900
C1583       C  0.14523577  0.46583850  0.61315397     0.28900
C1584       C  0.09668802  0.34528667  0.62865154     0.28900
C1585       C  0.13093649  0.34558952  0.59646978     0.28900
C1586       C  0.08491714  0.42628260  0.67299864     0.37500
C1587       C  0.07938659  0.37983906  0.66637570     0.37500
C1588       C  0.17345340  0.42786092  0.58673509     0.37500
C1589       C  0.16846197  0.38120012  0.58103838     0.37500
C1590       C  0.11517550  0.49406851  0.63791097    -0.20000
C1591       C  0.13640883  0.49444524  0.61703976    -0.20000
C1592       C  0.09225803  0.32107819  0.61109618    -0.20000
C1593       C  0.11395591  0.32123725  0.59078037    -0.20000
C1594       C  0.06921130  0.41602084  0.69649848    -0.21000
C1595       C  0.06577562  0.38654286  0.69235857    -0.21000
C1596       C  0.19767464  0.41841154  0.57178073    -0.21000
C1597       C  0.19452141  0.38882959  0.56818363    -0.21000
C1598       C  0.09259636  0.45573070  0.66841553    -0.16400
C1599       C  0.16790615  0.45714697  0.59446715    -0.16400
C1600       C  0.15652682  0.35278025  0.58145463    -0.16400
C1601       C  0.08026045  0.35185095  0.65355657    -0.16400
H1602       H  0.10389726  0.51294933  0.64617562     0.16500
H1603       H  0.14457144  0.51367968  0.60613299     0.16500
H1604       H  0.07527222  0.30484662  0.61287655     0.16500
H1605       H  0.11694820  0.30518920  0.57381304     0.16500
H1606       H  0.06115339  0.42845148  0.71474492     0.14800
H1607       H  0.05460165  0.37177856  0.70687937     0.14800
H1608       H  0.21581873  0.43142314  0.56438907     0.14800
H1609       H  0.20971814  0.37458789  0.55740600     0.14800
H1610       H  0.13325024  0.42613702  0.63410372     0.28100
H1611       H  0.12971486  0.37800948  0.62978346     0.28100
N1612       N  0.94359427  0.62346505  0.62244069    -0.34700
N1613       N  0.89872005  0.58887285  0.65149988    -0.55300
N1614       N  0.85480903  0.62062887  0.61998430    -0.34700
N1615       N  0.89983849  0.65213861  0.58741923    -0.55300
C1616       C  0.96030126  0.60358612  0.63613160     0.28900
C1617       C  0.96083926  0.63870966  0.60408680     0.28900
C1618       C  0.83930587  0.59821739  0.63107295     0.28900
C1619       C  0.84008487  0.63024511  0.59657914     0.28900
C1620       C  0.92205806  0.57923035  0.66625028     0.37500
C1621       C  0.87516214  0.57903815  0.66591651     0.37500
C1622       C  0.92281478  0.66911208  0.58033300     0.37500
C1623       C  0.87597203  0.66573918  0.57728344     0.37500
C1624       C  0.98861251  0.60637176  0.62648820    -0.20000
C1625       C  0.98901835  0.62865651  0.60657606    -0.20000
C1626       C  0.81466739  0.59345324  0.61449995    -0.20000
C1627       C  0.81522373  0.61360890  0.59260771    -0.20000
C1628       C  0.91330083  0.56289347  0.69000920    -0.21000
C1629       C  0.88356982  0.56299587  0.68996033    -0.21000
C1630       C  0.91350530  0.69332715  0.56502617    -0.21000
C1631       C  0.88383895  0.69120806  0.56311319    -0.21000
C1632       C  0.95115361  0.58377910  0.65794521    -0.16400
C1633       C  0.95213955  0.66249007  0.58645873    -0.16400
C1634       C  0.84734424  0.65492357  0.57992339    -0.16400
C1635       C  0.84634457  0.58246006  0.65626691    -0.16400
H1636       H  0.00725838  0.59399296  0.63342259     0.16500
H1637       H  0.00809834  0.63651667  0.59544298     0.16500
H1638       H  0.79811938  0.57698830  0.61767671     0.16500
H1639       H  0.79907600  0.61581777  0.57570439     0.16500
H1640       H  0.92691839  0.55203814  0.70574675     0.14800
H1641       H  0.86980560  0.55206443  0.70556104     0.14800
H1642       H  0.92669603  0.71068347  0.55609500     0.14800
H1643       H  0.86973494  0.70671514  0.55257550     0.14800
H1644       H  0.92194325  0.62736903  0.62644116     0.28100
H1645       H  0.87324357  0.63010584  0.62901097     0.28100
N1646       N  0.12173274  0.80847088  0.63151330    -0.34700
N1647       N  0.09694855  0.85143720  0.59184141    -0.55300
N1648       N  0.11868123  0.89841183  0.62879825    -0.34700
N1649       N  0.14660818  0.85545976  0.66639054    -0.55300
C1650       C  0.11277908  0.79075570  0.60971069     0.28900
C1651       C  0.13985512  0.79294628  0.64861838     0.28900
C1652       C  0.11088463  0.91342635  0.60477669     0.28900
C1653       C  0.13688436  0.91569277  0.64420827     0.28900
C1654       C  0.08448639  0.82697846  0.58095219     0.37500
C1655       C  0.08330132  0.87426239  0.57936420     0.37500
C1656       C  0.15404168  0.83256204  0.68330008     0.37500
C1657       C  0.15165674  0.87984609  0.68218600     0.37500
C1658       C  0.12497171  0.76344044  0.61324945    -0.20000
C1659       C  0.14196092  0.76478409  0.63777473    -0.20000
C1660       C  0.12451243  0.94033827  0.60471990    -0.20000
C1661       C  0.14015907  0.94215700  0.62987859    -0.20000
C1662       C  0.06309784  0.83423984  0.56118870    -0.21000
C1663       C  0.06215596  0.86410854  0.56033578    -0.21000
C1664       C  0.16433555  0.84245509  0.70983543    -0.21000
C1665       C  0.16279416  0.87235395  0.70917278    -0.21000
C1666       C  0.09308177  0.79814670  0.58732069    -0.16400
C1667       C  0.15339273  0.80298027  0.67449470    -0.16400
C1668       C  0.14914976  0.90871679  0.67155150    -0.16400
C1669       C  0.09074717  0.90404037  0.58363356    -0.16400
H1670       H  0.12180437  0.74438690  0.59970393     0.16500
H1671       H  0.15423059  0.74685692  0.64665129     0.16500
H1672       H  0.12329748  0.95721110  0.58839229     0.16500
H1673       H  0.15215438  0.96129130  0.63645180     0.16500
H1674       H  0.04951087  0.81954416  0.54871774     0.14800
H1675       H  0.04748142  0.87674492  0.54711204     0.14800
H1676       H  0.17248144  0.82951373  0.72767463     0.14800
H1677       H  0.16977423  0.88685666  0.72639398     0.14800
H1678       H  0.11476671  0.82954077  0.63520889     0.28100
H1679       H  0.11059474  0.87830128  0.63526248     0.28100
N1680       N  0.12811440  0.62949805  0.80810273    -0.34700
N1681       N  0.09469663  0.59675592  0.85124755    -0.55300
N1682       N  0.12568603  0.62622214  0.89750262    -0.34700
N1683       N  0.16260050  0.65524346  0.85419376    -0.55300
C1684       C  0.11234804  0.61166982  0.79078770     0.28900
C1685       C  0.15080335  0.63949142  0.79231256     0.28900
C1686       C  0.11442539  0.60322726  0.91212640     0.28900
C1687       C  0.14728943  0.63739446  0.91391366     0.28900
C1688       C  0.07761620  0.59263824  0.82769068     0.37500
C1689       C  0.07933120  0.58751492  0.87451722     0.37500
C1690       C  0.17434226  0.66922064  0.83111699     0.37500
C1691       C  0.16946675  0.67113282  0.87802177     0.37500
C1692       C  0.12487973  0.61056183  0.76345151    -0.20000
C1693       C  0.14930444  0.62786043  0.76450099    -0.20000
C1694       C  0.12950865  0.59939002  0.93782460    -0.20000
C1695       C  0.14961028  0.62141877  0.93940821    -0.20000
C1696       C  0.05138166  0.58047961  0.83596951    -0.21000
C1697       C  0.05249283  0.57714512  0.86560673    -0.21000
C1698       C  0.18937614  0.69372162  0.84039230    -0.21000
C1699       C  0.18604142  0.69511972  0.87006532    -0.21000
C1700       C  0.08616002  0.59767705  0.79864257    -0.16400
C1701       C  0.17180943  0.66008569  0.80181909    -0.16400
C1702       C  0.16322276  0.66280996  0.90697985    -0.16400
C1703       C  0.08986132  0.58691970  0.90344780    -0.16400
H1704       H  0.11726628  0.59855770  0.74466246     0.16500
H1705       H  0.16400919  0.63174408  0.74663071     0.16500
H1706       H  0.12643556  0.58263578  0.95403076     0.16500
H1707       H  0.16412905  0.62461515  0.95749290     0.16500
H1708       H  0.03343815  0.57433007  0.82206968     0.14800
H1709       H  0.03539596  0.56826299  0.87903872     0.14800
H1710       H  0.20116331  0.70918719  0.82712412     0.14800
H1711       H  0.19536061  0.71154326  0.88420276     0.14800
H1712       H  0.12251796  0.63567868  0.82899905     0.28100
H1713       H  0.11788210  0.63532132  0.87838023     0.28100
C1714       C  0.80176882  0.27412158  0.31259845     0.82100
N1715       N  0.77847003  0.28683812  0.32526996    -0.76200
C1716       C  0.76440681  0.30900763  0.31195118     0.84600
N1717       N  0.77408283  0.31880828  0.28590970    -0.76100
C1718       C  0.79757031  0.30668649  0.27309947     0.84700
N1719       N  0.81147713  0.28421588  0.28648272    -0.77800
N1720       N  0.68930883  0.39691608  0.36737209    -0.34700
N1721       N  0.64200028  0.42288707  0.39983585    -0.55300
N1722       N  0.60026943  0.38929728  0.36496651    -0.34700
N1723       N  0.64812912  0.36129816  0.33497679    -0.55300
C1724       C  0.70431481  0.41101356  0.38843148     0.28900
C1725       C  0.70753823  0.37773820  0.35466763     0.28900
C1726       C  0.58341217  0.39858866  0.38706822     0.28900
C1727       C  0.58671791  0.36613918  0.35266525     0.28900
C1728       C  0.66392608  0.44024089  0.40920345     0.37500
C1729       C  0.61705646  0.43568469  0.40821138     0.37500
C1730       C  0.67251129  0.35515402  0.32000777     0.37500
C1731       C  0.62573898  0.35131085  0.31881608     0.37500
C1732       C  0.73258061  0.40092465  0.38882550    -0.20000
C1733       C  0.73459849  0.37997951  0.36759878    -0.20000
C1734       C  0.55867045  0.38132861  0.38845219    -0.20000
C1735       C  0.56109942  0.36053528  0.36724054    -0.20000
C1736       C  0.65291147  0.46395938  0.42407598    -0.21000
C1737       C  0.62324093  0.46110791  0.42345656    -0.21000
C1738       C  0.66562857  0.34099570  0.29429279    -0.21000
C1739       C  0.63601154  0.33872623  0.29342651    -0.21000
C1740       C  0.69372663  0.43391421  0.40608405    -0.16400
C1741       C  0.70092080  0.35980178  0.33045353    -0.16400
C1742       C  0.59654362  0.35061028  0.32810293    -0.16400
C1743       C  0.58903598  0.42340506  0.40448721    -0.16400
H1744       H  0.75019427  0.40810627  0.40263656     0.16500
H1745       H  0.75407157  0.36825408  0.36206506     0.16500
H1746       H  0.54048515  0.38304770  0.40299946     0.16500
H1747       H  0.54560512  0.34323876  0.36328045     0.16500
H1748       H  0.66499122  0.48127851  0.43460934     0.14800
H1749       H  0.60805514  0.47579952  0.43362754     0.14800
H1750       H  0.68039511  0.33274239  0.27805516     0.14800
H1751       H  0.62354728  0.32846567  0.27627317     0.14800
H1752       H  0.66832307  0.40141566  0.36088212     0.28100
H1753       H  0.61909550  0.39932310  0.35761030     0.28100
C1754       C  0.75543210  0.45433386  0.45816670     0.82100
N1755       N  0.76751012  0.44125831  0.48167946    -0.76200
C1756       C  0.79386833  0.44978994  0.49176706     0.84600
N1757       N  0.80837269  0.47160358  0.47791963    -0.76100
C1758       C  0.79659242  0.48493080  0.45431651     0.84700
N1759       N  0.77012548  0.47611981  0.44443171    -0.77800
C1760       C  0.95206992  0.49262631  0.30427410     0.82100
N1761       N  0.94008863  0.47683153  0.28208600    -0.76200
C1762       C  0.95303165  0.45180056  0.27276835     0.84600
N1763       N  0.97769340  0.44258032  0.28603951    -0.76100
C1764       C  0.98987566  0.45824987  0.30802833     0.84700
N1765       N  0.97688855  0.48315630  0.31699269    -0.77800
C1766       C  0.98804352  0.30358308  0.45471892     0.82100
N1767       N  0.97281074  0.31330104  0.47801348    -0.76200
C1768       C  0.94891273  0.29863168  0.48743461     0.84600
N1769       N  0.94009829  0.27419575  0.47307790    -0.76100
C1770       C  0.95519087  0.26417774  0.44974611     0.84700
N1771       N  0.97903682  0.27905920  0.44061779    -0.77800
N1772       N  0.05977466  0.37218874  0.37476851    -0.34700
N1773       N  0.10400669  0.40698347  0.34600773    -0.55300
N1774       N  0.14928983  0.37608627  0.37835605    -0.34700
N1775       N  0.10500897  0.33902556  0.40432452    -0.55300
C1776       C  0.04378535  0.38453754  0.35339654     0.28900
C1777       C  0.04406391  0.34984081  0.38585948     0.28900
C1778       C  0.16533979  0.39078732  0.35867537     0.28900
C1779       C  0.16581116  0.35403442  0.38847960     0.28900
C1780       C  0.08019143  0.42086909  0.33596003     0.37500
C1781       C  0.12709085  0.42399377  0.33945997     0.37500
C1782       C  0.08150455  0.32858249  0.41855424     0.37500
C1783       C  0.12856883  0.32974375  0.41913184     0.37500
C1784       C  0.01737868  0.37009214  0.35130774    -0.20000
C1785       C  0.01754550  0.34829613  0.37178063    -0.20000
C1786       C  0.19257963  0.37818273  0.35685826    -0.20000
C1787       C  0.19250903  0.35458939  0.37491950    -0.20000
C1788       C  0.08824922  0.44662988  0.32248497    -0.21000
C1789       C  0.11787031  0.44872703  0.32488047    -0.21000
C1790       C  0.09012098  0.31244065  0.44240410    -0.21000
C1791       C  0.11985672  0.31325631  0.44286743    -0.21000
C1792       C  0.05165099  0.40935118  0.33674442    -0.16400
C1793       C  0.05250326  0.33147300  0.40905211    -0.16400
C1794       C  0.15777821  0.33415905  0.41039876    -0.16400
C1795       C  0.15646227  0.41609922  0.34364289    -0.16400
H1796       H  0.99961531  0.37486638  0.33675130     0.16500
H1797       H  0.00004921  0.33306831  0.37584795     0.16500
H1798       H  0.21102807  0.38475545  0.34409355     0.16500
H1799       H  0.21032717  0.33964146  0.37754011     0.16500
H1800       H  0.07436895  0.46211251  0.31163576     0.14800
H1801       H  0.13113137  0.46605293  0.31600195     0.14800
H1802       H  0.07641774  0.30103262  0.45772663     0.14800
H1803       H  0.13344154  0.30273636  0.45885253     0.14800
H1804       H  0.07969147  0.37938460  0.38240737     0.28100
H1805       H  0.12884580  0.38187992  0.38560920     0.28100
N1806       N  0.88222180  0.38226886  0.55813558    -0.34700
N1807       N  0.91349658  0.35074689  0.60329075    -0.55300
N1808       N  0.87985135  0.37938408  0.64895582    -0.34700
N1809       N  0.85162631  0.41402163  0.60297420    -0.55300
C1810       C  0.90385119  0.37039421  0.54235814     0.28900
C1811       C  0.87090811  0.40426499  0.54224749     0.28900
C1812       C  0.90203440  0.36811490  0.66454140     0.28900
C1813       C  0.86913954  0.40202976  0.66436299     0.28900
C1814       C  0.92241296  0.33583211  0.57950255     0.37500
C1815       C  0.92152629  0.33486079  0.62669533     0.37500
C1816       C  0.83693853  0.42358871  0.57930972     0.37500
C1817       C  0.83632410  0.42248724  0.62652866     0.37500
C1818       C  0.90602621  0.38469941  0.51592457    -0.20000
C1819       C  0.88522592  0.40603903  0.51583342    -0.20000
C1820       C  0.90530947  0.38369306  0.69016814    -0.20000
C1821       C  0.88457017  0.40505912  0.69005957    -0.20000
C1822       C  0.93621276  0.31047536  0.58778488    -0.21000
C1823       C  0.93548879  0.30972355  0.61758238    -0.21000
C1824       C  0.81232963  0.43835097  0.58788376    -0.21000
C1825       C  0.81176798  0.43742449  0.61766511    -0.21000
C1826       C  0.92068712  0.34611340  0.55059234    -0.16400
C1827       C  0.84698756  0.42160427  0.55031189    -0.16400
C1828       C  0.84573073  0.41986152  0.65582045    -0.16400
C1829       C  0.91927066  0.34416035  0.65606815    -0.16400
H1830       H  0.92090282  0.38011724  0.49838527     0.16500
H1831       H  0.88104849  0.42098306  0.49817478     0.16500
H1832       H  0.92151167  0.38072322  0.70686977     0.16500
H1833       H  0.88186520  0.42148828  0.70669040     0.16500
H1834       H  0.94611473  0.29437346  0.57383000     0.14800
H1835       H  0.94466694  0.29274543  0.63098064     0.14800
H1836       H  0.79664320  0.44918835  0.57424619     0.14800
H1837       H  0.79535596  0.44723547  0.63121659     0.14800
H1838       H  0.87463052  0.37472952  0.57798040     0.28100
H1839       H  0.87180733  0.37146751  0.62932743     0.28100
N1840       N  0.87704276  0.37703755  0.20188911    -0.34700
N1841       N  0.84652302  0.34179506  0.15824196    -0.55300
N1842       N  0.87341957  0.37663302  0.11257545    -0.34700
N1843       N  0.90016534  0.41468510  0.15617202    -0.55300
C1844       C  0.86117104  0.35948180  0.21941836     0.28900
C1845       C  0.88792152  0.39902864  0.21842782     0.28900
C1846       C  0.85208545  0.36299161  0.09759945     0.28900
C1847       C  0.88240142  0.39939265  0.09619238     0.28900
C1848       C  0.84063250  0.32533514  0.18188322     0.37500
C1849       C  0.83686750  0.32673948  0.13482490     0.37500
C1850       C  0.91394235  0.42658591  0.17935829     0.37500
C1851       C  0.91424927  0.42415642  0.13216734     0.37500
C1852       C  0.86236333  0.37024227  0.24759585    -0.20000
C1853       C  0.87899333  0.39519792  0.24692845    -0.20000
C1854       C  0.84722082  0.37754198  0.07170245    -0.20000
C1855       C  0.86672083  0.39999306  0.07048159    -0.20000
C1856       C  0.82681133  0.29977520  0.17344520    -0.21000
C1857       C  0.82444019  0.30065284  0.14365347    -0.21000
C1858       C  0.93641652  0.44432388  0.16998233    -0.21000
C1859       C  0.93680343  0.44256410  0.14014705    -0.21000
C1860       C  0.84620605  0.33361943  0.21106563    -0.16400
C1861       C  0.90660227  0.42183280  0.20889397    -0.16400
C1862       C  0.90581067  0.41802737  0.10314911    -0.16400
C1863       C  0.83785956  0.33693103  0.10579896    -0.16400
H1864       H  0.85227398  0.36112746  0.26676287     0.16500
H1865       H  0.88412630  0.40878857  0.26548175     0.16500
H1866       H  0.83135739  0.37254266  0.05509659     0.16500
H1867       H  0.86847392  0.41482380  0.05245494     0.16500
H1868       H  0.81901864  0.28241092  0.18731752     0.14800
H1869       H  0.81458299  0.28403823  0.13010694     0.14800
H1870       H  0.95128793  0.45686858  0.18327820     0.14800
H1871       H  0.95166726  0.45398930  0.12596660     0.14800
H1872       H  0.88110037  0.37349035  0.18011119     0.28100
H1873       H  0.88285605  0.36965664  0.13182186     0.28100
N1874       N  0.85788749  0.55626951  0.36447335    -0.34700
N1875       N  0.89200077  0.60286205  0.33753933    -0.55300
N1876       N  0.86056673  0.64614924  0.37189137    -0.34700
N1877       N  0.82928827  0.59897415  0.40121614    -0.55300
C1878       C  0.87754821  0.54019866  0.34978854     0.28900
C1879       C  0.84400060  0.53826106  0.38323369     0.28900
C1880       C  0.88287538  0.66224543  0.36147768     0.28900
C1881       C  0.85060476  0.65993069  0.39587111     0.28900
C1882       C  0.90036652  0.58021407  0.32063198     0.37500
C1883       C  0.90096172  0.62757097  0.32411936     0.37500
C1884       C  0.81280578  0.57529544  0.40737323     0.37500
C1885       C  0.81520655  0.62235817  0.41202011     0.37500
C1886       C  0.87591111  0.51149812  0.35916223    -0.20000
C1887       C  0.85475782  0.51027120  0.38016001    -0.20000
C1888       C  0.88675385  0.68668683  0.37887171    -0.20000
C1889       C  0.86700795  0.68476584  0.40092487    -0.20000
C1890       C  0.91519161  0.59057518  0.29660408    -0.21000
C1891       C  0.91547515  0.62051699  0.29873110    -0.21000
C1892       C  0.78820756  0.58363459  0.42234409    -0.21000
C1893       C  0.78962868  0.61340430  0.42516399    -0.21000
C1894       C  0.89590538  0.55028178  0.32717375    -0.16400
C1895       C  0.82074915  0.54608747  0.40173557    -0.16400
C1896       C  0.82643188  0.65120616  0.41256285    -0.16400
C1897       C  0.89852529  0.65611710  0.33581257    -0.16400
H1898       H  0.88841364  0.49317850  0.35144977     0.16500
H1899       H  0.84788970  0.49082404  0.39154052     0.16500
H1900       H  0.90218662  0.70423617  0.37659157     0.16500
H1901       H  0.86527717  0.70004848  0.41871888     0.16500
H1902       H  0.92493001  0.57787712  0.27940844     0.14800
H1903       H  0.92579452  0.63531729  0.28362601     0.14800
H1904       H  0.77117003  0.56970996  0.43068341     0.14800
H1905       H  0.77373249  0.62682215  0.43597452     0.14800
H1906       H  0.85313335  0.57797125  0.36075238     0.28100
H1907       H  0.85155810  0.62776446  0.36213704     0.28100
N1908       N  0.87691936  0.19560251  0.37611003    -0.34700
N1909       N  0.89926907  0.14828758  0.41227551    -0.55300
N1910       N  0.86895452  0.10596741  0.37559992    -0.34700
N1911       N  0.84957004  0.15322461  0.33728918    -0.55300
C1912       C  0.89505663  0.21104682  0.39351525     0.28900
C1913       C  0.86766983  0.21360285  0.35474812     0.28900
C1914       C  0.88662899  0.08820962  0.39093220     0.28900
C1915       C  0.86047585  0.09108961  0.35160216     0.28900
C1916       C  0.90762556  0.17131586  0.42880751     0.37500
C1917       C  0.90335000  0.12395322  0.42840086     0.37500
C1918       C  0.83774613  0.17790488  0.32649342     0.37500
C1919       C  0.83428852  0.13068173  0.32592461     0.37500
C1920       C  0.89710249  0.23938319  0.38301563    -0.20000
C1921       C  0.88004219  0.24089597  0.35858489    -0.20000
C1922       C  0.88869542  0.06161741  0.37656783    -0.20000
C1923       C  0.87315281  0.06387721  0.35145246    -0.20000
C1924       C  0.91753045  0.16146050  0.45547621    -0.21000
C1925       C  0.91482149  0.13157018  0.45523287    -0.21000
C1926       C  0.81511956  0.17100836  0.30790505    -0.21000
C1927       C  0.81279114  0.14119232  0.30766629    -0.21000
C1928       C  0.90807778  0.20092537  0.41968084    -0.16400
C1929       C  0.84715795  0.20664477  0.33279389    -0.16400
C1930       C  0.84039759  0.10077077  0.33061447    -0.16400
C1931       C  0.89963706  0.09494029  0.41812740    -0.16400
H1932       H  0.90902743  0.25753627  0.39214345     0.16500
H1933       H  0.87674983  0.26014390  0.34545253     0.16500
H1934       H  0.89975633  0.04203012  0.38298641     0.16500
H1935       H  0.87133734  0.04703691  0.33508319     0.16500
H1936       H  0.92624000  0.17438978  0.47315299     0.14800
H1937       H  0.92120785  0.11713109  0.47263604     0.14800
H1938       H  0.80144335  0.18591117  0.29600222     0.14800
H1939       H  0.79684468  0.12883816  0.29551851     0.14800
H1940       H  0.86988989  0.17447539  0.37956186     0.28100
H1941       H  0.86161817  0.12633626  0.38201370     0.28100
O1942       O  0.03227551  0.27758288  0.68734329    -0.76600
C1943       C  0.97725027  0.19597036  0.69670369     0.84500
O1944       O  0.95570422  0.30280596  0.74817653    -0.77700
O1945       O  0.97208020  0.20665279  0.78745456    -0.79200
O1946       O  0.07177098  0.22405110  0.77226964    -0.79000
O1947       O  0.07059494  0.27318476  0.71629649    -0.77600
Zn1948     Zn  0.99963771  0.25729398  0.70763762     1.55700
O1949       O  0.03642001  0.19143631  0.77812175    -0.79000
Cd1950     Cd  0.05023860  0.25768545  0.75272659     1.59700
Cd1951     Cd  0.98362297  0.27709655  0.77433329     1.59600
O1952       O  0.05523960  0.28958773  0.78225219    -0.79000
O1953       O  0.00801340  0.25125264  0.74789197    -1.89500
Cd1954     Cd  0.00191926  0.20974336  0.75653034     1.59900
O1955       O  0.01221167  0.30405043  0.79877055    -0.78900
O1956       O  0.98358729  0.18732398  0.72221775    -0.77600
C1957       C  0.95342451  0.30276571  0.72044800     0.84900
C1958       C  0.05868212  0.28274431  0.69336961     0.84600
O1959       O  0.98439854  0.22115213  0.68747230    -0.76600
C1960       C  0.06190214  0.20073477  0.78334655     0.85400
O1961       O  0.96854606  0.28598279  0.70475583    -0.76600
C1962       C  0.03994326  0.30528125  0.79885224     0.85500
C1963       C  0.95750466  0.22265968  0.80428500     0.85900
O1964       O  0.95850574  0.25052241  0.80279625    -0.79100
C1965       C  0.04518401  0.20046865  0.01982171     0.82100
N1966       N  0.02152419  0.18960670  0.03339959    -0.76200
C1967       C  0.01015799  0.20306985  0.05693880     0.84600
N1968       N  0.02291706  0.22783639  0.06737215    -0.76100
C1969       C  0.04690476  0.23904593  0.05400978     0.84700
N1970       N  0.05796606  0.22517238  0.03027967    -0.77800
N1971       N  0.11295007  0.31080480  0.13818849    -0.34700
N1972       N  0.07910496  0.35569267  0.10867550    -0.55300
N1973       N  0.11429751  0.40172709  0.13583702    -0.34700
N1974       N  0.14454992  0.35636120  0.16928378    -0.55300
C1975       C  0.09160243  0.29419028  0.12644502     0.28900
C1976       C  0.12635822  0.29455811  0.15872245     0.28900
C1977       C  0.09164857  0.41730136  0.12567992     0.28900
C1978       C  0.12671774  0.41762563  0.15730335     0.28900
C1979       C  0.06918175  0.33175288  0.09434205     0.37500
C1980       C  0.06950689  0.37925724  0.09383501     0.37500
C1981       C  0.15975992  0.33276701  0.17818593     0.37500
C1982       C  0.16055845  0.38013588  0.17643060     0.37500
C1983       C  0.09178867  0.26688515  0.13936130    -0.20000
C1984       C  0.11362995  0.26714595  0.15972679    -0.20000
C1985       C  0.08963170  0.44328923  0.14093132    -0.20000
C1986       C  0.11178148  0.44350737  0.16086158    -0.20000
C1987       C  0.05301063  0.34013355  0.07046797    -0.21000
C1988       C  0.05336953  0.37008005  0.06999231    -0.21000
C1989       C  0.18539050  0.34157524  0.19117827    -0.21000
C1990       C  0.18604193  0.37146048  0.18987427    -0.21000
C1991       C  0.07276271  0.30247990  0.10357326    -0.16400
C1992       C  0.15039673  0.30338588  0.17587849    -0.16400
C1993       C  0.15150546  0.40954809  0.17331008    -0.16400
C1994       C  0.07315712  0.40884534  0.10266033    -0.16400
H1995       H  0.07769947  0.24857219  0.13458490     0.16500
H1996       H  0.11948245  0.24911815  0.17364575     0.16500
H1997       H  0.07353399  0.46014593  0.13846875     0.16500
H1998       H  0.11594166  0.46056497  0.17659098     0.16500
H1999       H  0.04193811  0.32614104  0.05505904     0.14800
H2000       H  0.04269781  0.38347213  0.05393055     0.14800
H2001       H  0.20195921  0.32788201  0.20054856     0.14800
H2002       H  0.20332572  0.38517486  0.19813092     0.14800
H2003       H  0.11886667  0.33159148  0.13160528     0.28100
H2004       H  0.12173243  0.38198918  0.12767947     0.28100
C2005       C  0.04968452  0.05430449  0.23122744     0.82100
N2006       N  0.02484997  0.06804289  0.22368542    -0.76200
C2007       C  0.00831925  0.05817829  0.20132370     0.84600
N2008       N  0.01680614  0.03408627  0.18622894    -0.76100
C2009       C  0.04174278  0.02006078  0.19358154     0.84700
N2010       N  0.05805611  0.03036673  0.21608398    -0.77800
C2011       C  0.19842543  0.23703560  0.19547280     0.82100
N2012       N  0.22101285  0.22416254  0.18166007    -0.76200
C2013       C  0.23585245  0.20205559  0.19428219     0.84600
N2014       N  0.22729077  0.19209399  0.22072391    -0.76100
C2015       C  0.20428333  0.20415267  0.23465938     0.84700
N2016       N  0.18988118  0.22680537  0.22198323    -0.77800
N2017       N  0.11970902  0.13763895  0.30298086    -0.34700
N2018       N  0.08940926  0.10170155  0.34553456    -0.55300
N2019       N  0.12576796  0.12531235  0.39163877    -0.34700
N2020       N  0.15422281  0.16359365  0.34916676    -0.55300
C2021       C  0.09741498  0.12727354  0.28679234     0.28900
C2022       C  0.13091943  0.16100849  0.28888619     0.28900
C2023       C  0.10402660  0.11309060  0.40720595     0.28900
C2024       C  0.13931789  0.14470687  0.40919660     0.28900
C2025       C  0.07951668  0.08909749  0.32082296     0.37500
C2026       C  0.08164538  0.08393824  0.36764133     0.37500
C2027       C  0.16758136  0.17585909  0.32595459     0.37500
C2028       C  0.17151613  0.16824971  0.37251060     0.37500
C2029       C  0.09461502  0.14402556  0.26191153    -0.20000
C2030       C  0.11570040  0.16527411  0.26322229    -0.20000
C2031       C  0.10347153  0.12520252  0.43472806    -0.20000
C2032       C  0.12620114  0.14430270  0.43635263    -0.20000
C2033       C  0.06520489  0.06329877  0.32726817    -0.21000
C2034       C  0.06670586  0.05992713  0.35685610    -0.21000
C2035       C  0.19327755  0.18886919  0.33471812    -0.21000
C2036       C  0.19585508  0.18393128  0.36411097    -0.21000
C2037       C  0.08076886  0.10204558  0.29298614    -0.16400
C2038       C  0.15570320  0.17726769  0.29751269    -0.16400
C2039       C  0.16415827  0.16125644  0.40163749    -0.16400
C2040       C  0.08554475  0.09047446  0.39750537    -0.16400
H2041       H  0.07922814  0.14106722  0.24438872     0.16500
H2042       H  0.11957862  0.18169826  0.24682376     0.16500
H2043       H  0.08832004  0.12101288  0.45210737     0.16500
H2044       H  0.13177949  0.15621202  0.45576909     0.16500
H2045       H  0.05435387  0.04863147  0.31234579     0.14800
H2046       H  0.05747775  0.04197966  0.36900256     0.14800
H2047       H  0.20839678  0.20105634  0.32148018     0.14800
H2048       H  0.21326825  0.19179509  0.37783162     0.14800
H2049       H  0.12787854  0.12813022  0.32168533     0.28100
H2050       H  0.13221451  0.11952040  0.37080326     0.28100
C2051       C  0.24274775  0.04396871  0.05510879     0.82100
N2052       N  0.23383958  0.06119787  0.03283285    -0.76200
C2053       C  0.20927855  0.05473846  0.01785055     0.84600
N2054       N  0.19334286  0.03088807  0.02554543    -0.76100
C2055       C  0.20210161  0.01341163  0.04773514     0.84700
N2056       N  0.22681334  0.02014928  0.06244397    -0.77800
N2057       N  0.31141949  0.12199393  0.13191688    -0.34700
N2058       N  0.35480733  0.14576059  0.17093053    -0.55300
N2059       N  0.39988448  0.11435236  0.13825917    -0.34700
N2060       N  0.35597157  0.08610793  0.10319137    -0.55300
C2061       C  0.29398111  0.13441509  0.15209268     0.28900
C2062       C  0.29478295  0.10411131  0.11542731     0.28900
C2063       C  0.41475111  0.12427417  0.16152145     0.28900
C2064       C  0.41513533  0.09184189  0.12718900     0.28900
C2065       C  0.33179097  0.16138965  0.18019579     0.37500
C2066       C  0.37870284  0.15876942  0.18210003     0.37500
C2067       C  0.33337191  0.08066060  0.08525696     0.37500
C2068       C  0.37980237  0.07528458  0.08999528     0.37500
C2069       C  0.26588609  0.12432321  0.14819495    -0.20000
C2070       C  0.26635095  0.10543079  0.12498358    -0.20000
C2071       C  0.43961385  0.10792944  0.16538465    -0.20000
C2072       C  0.43980359  0.08735268  0.14375755    -0.20000
C2073       C  0.34107930  0.18409190  0.19781179    -0.21000
C2074       C  0.37077656  0.18260503  0.19881990    -0.21000
C2075       C  0.34282081  0.06586582  0.06078291    -0.21000
C2076       C  0.37221818  0.06242499  0.06380400    -0.21000
C2077       C  0.30246858  0.15524845  0.17336614    -0.16400
C2078       C  0.30414376  0.08763901  0.09115196    -0.16400
C2079       C  0.40814011  0.07617457  0.10171989    -0.16400
C2080       C  0.40743656  0.14875597  0.17839986    -0.16400
H2081       H  0.24691595  0.12996850  0.16071026     0.16500
H2082       H  0.24780386  0.09386168  0.11624784     0.16500
H2083       H  0.45591066  0.11054815  0.18211909     0.16500
H2084       H  0.45628437  0.07098403  0.14059681     0.16500
H2085       H  0.32787243  0.20027375  0.20852099     0.14800
H2086       H  0.38482833  0.19736703  0.21066277     0.14800
H2087       H  0.32986195  0.05819691  0.04268926     0.14800
H2088       H  0.38635603  0.05177153  0.04841927     0.14800
H2089       H  0.33313477  0.12645350  0.12845592     0.28100
H2090       H  0.38151863  0.12383384  0.12941505     0.28100
N2091       N  0.13016650  0.13307723  0.95028731    -0.34700
N2092       N  0.16036428  0.09998557  0.90532086    -0.55300
N2093       N  0.12782091  0.13037164  0.86102802    -0.34700
N2094       N  0.09480019  0.16095405  0.90597463    -0.55300
C2095       C  0.14182854  0.11156590  0.96662540     0.28900
C2096       C  0.11064915  0.14726234  0.96697145     0.28900
C2097       C  0.14152607  0.11021452  0.84464448     0.28900
C2098       C  0.10506270  0.14009079  0.84538209     0.28900
C2099       C  0.17444557  0.09002551  0.92906790     0.37500
C2100       C  0.17610565  0.09200235  0.88189203     0.37500
C2101       C  0.08805188  0.17821957  0.92882780     0.37500
C2102       C  0.08418457  0.17412155  0.88196514     0.37500
C2103       C  0.12978946  0.11242608  0.99422174    -0.20000
C2104       C  0.11036709  0.13508840  0.99451814    -0.20000
C2105       C  0.12745539  0.10757424  0.81807669    -0.20000
C2106       C  0.10408419  0.12568703  0.81892442    -0.20000
C2107       C  0.19909682  0.07515659  0.92068147    -0.21000
C2108       C  0.20032809  0.07667392  0.89084672    -0.21000
C2109       C  0.07269794  0.20226837  0.91933288    -0.21000
C2110       C  0.07015736  0.19962547  0.88966262    -0.21000
C2111       C  0.16401543  0.09212137  0.95791278    -0.16400
C2112       C  0.09401400  0.17162078  0.95826944    -0.16400
C2113       C  0.08647793  0.16315152  0.85328653    -0.16400
C2114       C  0.16725385  0.09558792  0.85259675    -0.16400
H2115       H  0.13481715  0.09850178  0.01248332     0.16500
H2116       H  0.09744276  0.14168291  0.01294134     0.16500
H2117       H  0.13301609  0.09441313  0.79951814     0.16500
H2118       H  0.08853675  0.12831564  0.80154024     0.16500
H2119       H  0.21444690  0.06410011  0.93454123     0.14800
H2120       H  0.21660524  0.06663100  0.87730186     0.14800
H2121       H  0.06403990  0.21977082  0.93242902     0.14800
H2122       H  0.05946791  0.21490480  0.87538489     0.14800
H2123       H  0.13610061  0.13880946  0.92936660     0.28100
H2124       H  0.13483464  0.13852237  0.88085722     0.28100
N2125       N  0.12842808  0.94606990  0.12690672    -0.34700
N2126       N  0.08793525  0.90539388  0.15409328    -0.55300
N2127       N  0.12176078  0.85661808  0.13035642    -0.34700
N2128       N  0.15950081  0.89766249  0.09998979    -0.55300
C2129       C  0.10949576  0.96503399  0.13890194     0.28900
C2130       C  0.14538324  0.96117818  0.10815446     0.28900
C2131       C  0.09743109  0.84275243  0.13923559     0.28900
C2132       C  0.13574157  0.83846941  0.11197053     0.28900
C2133       C  0.08080339  0.92994056  0.16880522     0.37500
C2134       C  0.07610927  0.88278186  0.16883056     0.37500
C2135       C  0.17679293  0.91997077  0.09139527     0.37500
C2136       C  0.17416516  0.87270104  0.09484706     0.37500
C2137       C  0.11447438  0.99260949  0.12775312    -0.20000
C2138       C  0.13702011  0.99023811  0.10845312    -0.20000
C2139       C  0.09563328  0.81572404  0.12591876    -0.20000
C2140       C  0.12011195  0.81265040  0.10944621    -0.20000
C2141       C  0.06401689  0.92293571  0.19270275    -0.21000
C2142       C  0.06105149  0.89315292  0.19275860    -0.21000
C2143       C  0.20228963  0.90903066  0.07998550    -0.21000
C2144       C  0.20069711  0.87919948  0.08228102    -0.21000
C2145       C  0.08909156  0.95865103  0.16098217    -0.16400
C2146       C  0.16959323  0.95001686  0.09266137    -0.16400
C2147       C  0.16307835  0.84410683  0.09918896    -0.16400
C2148       C  0.07807654  0.85298466  0.16069013    -0.16400
H2149       H  0.10329626  0.01252977  0.13327452     0.16500
H2150       H  0.14648339  0.00827417  0.09669388     0.16500
H2151       H  0.07870705  0.79950474  0.12815056     0.16500
H2152       H  0.12536716  0.79323544  0.09738431     0.16500
H2153       H  0.05512927  0.93769080  0.20868783     0.14800
H2154       H  0.04952631  0.88064431  0.20898722     0.14800
H2155       H  0.22016950  0.92122035  0.07079525     0.14800
H2156       H  0.21700686  0.86407003  0.07489548     0.14800
H2157       H  0.13079513  0.92446108  0.13267302     0.28100
H2158       H  0.12952071  0.87640436  0.13816008     0.28100
N2159       N  0.93661079  0.13792366  0.13310545    -0.34700
N2160       N  0.89188960  0.10250550  0.16032730    -0.55300
N2161       N  0.84741148  0.14026054  0.13530615    -0.34700
N2162       N  0.89283061  0.17878245  0.11240048    -0.55300
C2163       C  0.95330680  0.11902536  0.14816066     0.28900
C2164       C  0.95383496  0.16017655  0.12431136     0.28900
C2165       C  0.83194084  0.12602749  0.15582872     0.28900
C2166       C  0.83221820  0.16426191  0.12800812     0.28900
C2167       C  0.91456931  0.08428658  0.16400336     0.37500
C2168       C  0.86782148  0.08753962  0.16810028     0.37500
C2169       C  0.91645440  0.19005834  0.09903339     0.37500
C2170       C  0.86947609  0.19000084  0.09870981     0.37500
C2171       C  0.98161124  0.12936035  0.14866208    -0.20000
C2172       C  0.98187142  0.15536250  0.13388455    -0.20000
C2173       C  0.80672679  0.14130934  0.16161310    -0.20000
C2174       C  0.80682605  0.16532717  0.14387553    -0.20000
C2175       C  0.90487005  0.05767504  0.17446341    -0.21000
C2176       C  0.87529797  0.05975005  0.17713065    -0.21000
C2177       C  0.90811824  0.20889061  0.07713564    -0.21000
C2178       C  0.87843058  0.20865449  0.07669823    -0.21000
C2179       C  0.94404783  0.09196900  0.16000049    -0.16400
C2180       C  0.94551985  0.18363633  0.10614606    -0.16400
C2181       C  0.84026407  0.18469255  0.10666088    -0.16400
C2182       C  0.83943414  0.09912733  0.16870065    -0.16400
H2183       H  0.00037211  0.11919728  0.15829866     0.16500
H2184       H  0.00076517  0.16887189  0.13010680     0.16500
H2185       H  0.78998511  0.13591768  0.17713146     0.16500
H2186       H  0.79028775  0.18192474  0.14306034     0.16500
H2187       H  0.91778031  0.03885802  0.17998325     0.14800
H2188       H  0.86096108  0.04273488  0.18487188     0.14800
H2189       H  0.92197945  0.22108885  0.06257271     0.14800
H2190       H  0.86515052  0.22079382  0.06164805     0.14800
H2191       H  0.91508609  0.13488407  0.12760115     0.28100
H2192       H  0.86642463  0.13326255  0.12556653     0.28100
C2193       C  0.28160345  0.07792067  0.07023643    -0.14500
C2194       C  0.26828727  0.05198271  0.07286817    -0.29700
H2195       H  0.27438924  0.09354981  0.05412248     0.14500
H2196       H  0.27511893  0.03713816  0.08989991     0.15100
C2197       C  0.18331532  0.98891371  0.05733631    -0.14500
C2198       C  0.19039851  0.97138192  0.07969609    -0.29700
H2199       H  0.16224317  0.98638788  0.04708737     0.14500
H2200       H  0.21170850  0.97308102  0.08957369     0.15100
C2201       C  0.17471178  0.07081030  0.97981085    -0.14500
C2202       C  0.19971463  0.07461742  0.99432331    -0.29700
H2203       H  0.16053014  0.05268048  0.98523151     0.14500
H2204       H  0.21321854  0.09339829  0.98927799     0.15100
C2205       C  0.19392262  0.19014579  0.26192232    -0.14500
C2206       C  0.16897674  0.19703554  0.27527323    -0.29700
H2207       H  0.20599365  0.17148426  0.26981580     0.14500
H2208       H  0.15586319  0.21465244  0.26675727     0.15100
C2209       C  0.25970471  0.18782971  0.17801123    -0.14500
C2210       C  0.27947551  0.17037465  0.19057731    -0.29700
H2211       H  0.26111438  0.19185719  0.15480037     0.14500
H2212       H  0.27954285  0.16769460  0.21401584     0.15100
C2213       C  0.06171754  0.09029962  0.26960451    -0.14500
C2214       C  0.06790813  0.06548681  0.25534163    -0.29700
H2215       H  0.04315202  0.10325515  0.26324906     0.14500
H2216       H  0.08713599  0.05332830  0.26131641     0.15100
C2217       C  0.96670918  0.07073223  0.16904691    -0.14500
C2218       C  0.98240202  0.07524905  0.19323645    -0.29700
H2219       H  0.97122052  0.05232119  0.15495708     0.14500
H2220       H  0.97721773  0.09393518  0.20677934     0.15100
C2221       C  0.07841736  0.98366524  0.17872500    -0.14500
C2222       C  0.05123734  0.99406160  0.17681510    -0.29700
H2223       H  0.09423954  0.99487112  0.19224537     0.14500
H2224       H  0.03601213  0.98384076  0.16190260     0.15100
C2225       C  0.18244966  0.26042413  0.18000037    -0.14500
C2226       C  0.16604030  0.28067289  0.19314435    -0.29700
H2227       H  0.18498399  0.26155334  0.15655960     0.14500
H2228       H  0.16468779  0.28134686  0.21668281     0.15100
C2229       C  0.06234947  0.26509874  0.06577794    -0.14500
C2230       C  0.05431493  0.27914411  0.09016415    -0.29700
H2231       H  0.08186767  0.27225288  0.05467580     0.14500
H2232       H  0.03536267  0.27187247  0.10210424     0.15100
C2233       C  0.08187330  0.19083812  0.98133188    -0.14500
C2234       C  0.05706148  0.18395833  0.99487407    -0.29700
H2235       H  0.09405616  0.21013897  0.98762013     0.14500
H2236       H  0.04548205  0.16440143  0.98810250     0.15100
C2237       C  0.98557986  0.18865103  0.07167741    -0.14500
C2238       C  0.96892992  0.20107711  0.09202872    -0.29700
H2239       H  0.98086228  0.16627157  0.06536143     0.14500
H2240       H  0.97179591  0.22386225  0.09780754     0.15100
C2241       C  0.06841876  0.17658477  0.83012378    -0.14500
C2242       C  0.07983448  0.18555641  0.80471923    -0.29700
H2243       H  0.04570445  0.18060724  0.83471211     0.14500
H2244       H  0.10307329  0.18463994  0.80125783     0.15100
C2245       C  0.93937313  0.33005547  0.67725331    -0.14500
C2246       C  0.93315894  0.32234312  0.70494050    -0.29700
H2247       H  0.96025700  0.32365994  0.66852889     0.14500
H2248       H  0.91294027  0.32854526  0.71513122     0.15100
C2249       C  0.93980895  0.33291641  0.52815784    -0.14500
C2250       C  0.93146832  0.30982996  0.51208006    -0.29700
H2251       H  0.96021008  0.34385843  0.52366751     0.14500
H2252       H  0.91086183  0.29931499  0.51672545     0.15100
C2253       C  0.92108069  0.22310307  0.43974067    -0.14500
C2254       C  0.94476095  0.23877672  0.43259145    -0.29700
H2255       H  0.91024622  0.22702896  0.46027998     0.14500
H2256       H  0.95583516  0.23390068  0.41236180     0.15100
C2257       C  0.01297762  0.32097676  0.44389924    -0.14500
C2258       C  0.02999410  0.31205671  0.42196196    -0.29700
H2259       H  0.01696927  0.34221084  0.45364037     0.14500
H2260       H  0.02647877  0.29088999  0.41195309     0.15100
C2261       C  0.93788617  0.51892803  0.31654180    -0.14500
C2262       C  0.91105326  0.52769583  0.30945457    -0.29700
H2263       H  0.94916936  0.53031734  0.33395384     0.14500
H2264       H  0.89863721  0.51585336  0.29319365     0.15100
C2265       C  0.94000619  0.43314332  0.24970467    -0.14500
C2266       C  0.91925656  0.44202244  0.23121061    -0.29700
H2267       H  0.94810066  0.41104190  0.24762355     0.14500
H2268       H  0.91188320  0.46444821  0.23171358     0.15100
C2269       C  0.01595476  0.44768674  0.32374621    -0.14500
C2270       C  0.02886857  0.42218397  0.31759013    -0.29700
H2271       H  0.02385648  0.46049793  0.34200682     0.14500
H2272       H  0.02042172  0.40863009  0.30013823     0.15100
C2273       C  0.80677926  0.43407379  0.51677222    -0.14500
C2274       C  0.83336086  0.43996215  0.52730652    -0.29700
H2275       H  0.79437383  0.41631018  0.52627845     0.14500
H2276       H  0.84649789  0.45688253  0.51732029     0.15100
C2277       C  0.81333470  0.50809916  0.43925963    -0.14500
C2278       C  0.80343064  0.52247736  0.41581941    -0.29700
H2279       H  0.83468326  0.51353868  0.44768659     0.14500
H2280       H  0.78184796  0.51803690  0.40748291     0.15100
C2281       C  0.71556577  0.45207656  0.42176510    -0.14500
C2282       C  0.72796967  0.44236513  0.44633154    -0.29700
H2283       H  0.72418583  0.47114246  0.41076014     0.14500
H2284       H  0.71921088  0.42286844  0.45651504     0.15100
C2285       C  0.81659232  0.25035262  0.32835380    -0.14500
C2286       C  0.83427813  0.23099611  0.31564316    -0.29700
H2287       H  0.81182847  0.24790657  0.35134261     0.14500
H2288       H  0.83770781  0.23160446  0.29231669     0.15100
C2289       C  0.73954888  0.32292855  0.32652801    -0.14500
C2290       C  0.72509026  0.34540601  0.31480475    -0.29700
H2291       H  0.73330944  0.31499260  0.34786515     0.14500
H2292       H  0.73040252  0.35314553  0.29316919     0.15100
C2293       C  0.80825423  0.31978948  0.24577105    -0.14500
C2294       C  0.83465985  0.31482872  0.23477960    -0.29700
H2295       H  0.79486851  0.33636780  0.23566682     0.14500
H2296       H  0.84916287  0.29947773  0.24517207     0.15100
C2297       C  0.06290114  0.32816171  0.66686915    -0.14500
C2298       C  0.07508086  0.30289515  0.67503122    -0.29700
H2299       H  0.04062186  0.33275875  0.67285668     0.14500
H2300       H  0.09815963  0.29950819  0.67211740     0.15100
C2301       C  0.99114770  0.57520011  0.69248491    -0.14500
C2302       C  0.97340702  0.56510435  0.67161117    -0.29700
H2303       H  0.98830786  0.59718309  0.70077861     0.14500
H2304       H  0.97533771  0.54288864  0.66371165     0.15100
C2305       C  0.05585931  0.49144853  0.68307577    -0.14500
C2306       C  0.08109000  0.47814405  0.68845974    -0.29700
H2307       H  0.04291556  0.48452213  0.66454880     0.14500
H2308       H  0.09496431  0.48545270  0.70611395     0.15100
C2309       C  0.07029065  0.56112592  0.76285065    -0.14500
C2310       C  0.06682147  0.58746949  0.77496160    -0.29700
H2311       H  0.08723011  0.54693218  0.77098044     0.14500
H2312       H  0.05048667  0.60235600  0.76690243     0.15100
C2313       C  0.25603169  0.56771956  0.57165119    -0.14500
C2314       C  0.27840551  0.58414482  0.56254810    -0.29700
H2315       H  0.25402609  0.56317388  0.59472982     0.14500
H2316       H  0.28230217  0.58666258  0.53941948     0.15100
C2317       C  0.18725405  0.48785276  0.55494818    -0.14500
C2318       C  0.18713197  0.48052687  0.58316527    -0.29700
H2319       H  0.17412162  0.47541975  0.53968109     0.14500
H2320       H  0.19836177  0.49414701  0.59893029     0.15100
C2321       C  0.26744464  0.69445054  0.69356037    -0.14500
C2322       C  0.27217780  0.66565038  0.69119531    -0.29700
H2323       H  0.28233215  0.70936841  0.68285535     0.14500
H2324       H  0.25598365  0.65035421  0.69907804     0.15100
C2325       C  0.18135678  0.69079346  0.75879967    -0.14500
C2326       C  0.19166475  0.67336417  0.77981238    -0.29700
H2327       H  0.15836899  0.69573935  0.75864115     0.14500
H2328       H  0.21481650  0.66993632  0.78191623     0.15100
C2329       C  0.19292070  0.76918870  0.68732518    -0.14500
C2330       C  0.16703601  0.78085620  0.69373375    -0.29700
H2331       H  0.20488807  0.77755844  0.66879204     0.14500
H2332       H  0.15466097  0.77299447  0.71218527     0.15100
C2333       C  0.20118227  0.59095481  0.47290782    -0.14500
C2334       C  0.19631660  0.56334312  0.48127212    -0.29700
H2335       H  0.21491246  0.60508812  0.48600157     0.14500
H2336       H  0.18094572  0.55026709  0.46888558     0.15100
C2337       C  0.07829610  0.69288506  0.49149520    -0.14500
C2338       C  0.07282651  0.66989269  0.47418193    -0.29700
H2339       H  0.09810652  0.70533443  0.48821839     0.14500
H2340       H  0.05272233  0.65773004  0.47638061     0.15100
C2341       C  0.97503414  0.68275399  0.57561196    -0.14500
C2342       C  0.99349643  0.67530621  0.55430565    -0.29700
H2343       H  0.97691466  0.70391316  0.58605816     0.14500
H2344       H  0.99070337  0.65444457  0.54342491     0.15100
C2345       C  0.05958296  0.75791315  0.57397488    -0.14500
C2346       C  0.08285758  0.77447134  0.56770093    -0.29700
H2347       H  0.04727374  0.76240313  0.59355470     0.14500
H2348       H  0.09531290  0.77048254  0.54812840     0.15100
C2349       C  0.93402544  0.16621217  0.68940299    -0.14500
C2350       C  0.95847708  0.17770942  0.67825230    -0.29700
H2351       H  0.92944056  0.16921048  0.71237549     0.14500
H2352       H  0.96182418  0.17773878  0.65490109     0.15100
C2353       C  0.68145240  0.25555370  0.68841432    -0.14500
C2354       C  0.68864498  0.27064756  0.66447625    -0.29700
H2355       H  0.66139216  0.26069926  0.69956270     0.14500
H2356       H  0.70876605  0.26626216  0.65316663     0.15100
C2357       C  0.69559968  0.17782391  0.76044489    -0.14500
C2358       C  0.67063161  0.18383986  0.77409742    -0.29700
H2359       H  0.70833077  0.15931477  0.76760687     0.14500
H2360       H  0.65747749  0.20217730  0.76736826     0.15100
C2361       C  0.78348214  0.16994332  0.69079413    -0.14500
C2362       C  0.76431499  0.18888491  0.67969590    -0.29700
H2363       H  0.78211219  0.16334882  0.71339818     0.14500
H2364       H  0.76665891  0.19591826  0.65728742     0.15100
C2365       C  0.47691809  0.18730124  0.55644220    -0.14500
C2366       C  0.46820572  0.16023334  0.54923269    -0.29700
H2367       H  0.46589756  0.19865486  0.57392708     0.14500
H2368       H  0.47989100  0.14796396  0.53286406     0.15100
C2369       C  0.55978363  0.18571651  0.48867545    -0.14500
C2370       C  0.55016184  0.16192008  0.47437166    -0.29700
H2371       H  0.58107962  0.19444959  0.48353824     0.14500
H2372       H  0.52863406  0.15327947  0.47851316     0.15100
C2373       C  0.55010504  0.26448284  0.56122931    -0.14500
C2374       C  0.57856967  0.27069834  0.56201654    -0.29700
H2375       H  0.53534522  0.27738635  0.57427520     0.14500
H2376       H  0.59367580  0.25628721  0.55112738     0.15100
C2377       C  0.68905250  0.06371497  0.48650503    -0.14500
C2378       C  0.66116426  0.05910812  0.47952437    -0.29700
H2379       H  0.70161128  0.07911855  0.47369495     0.14500
H2380       H  0.64758933  0.04562349  0.49335624     0.15100
C2381       C  0.69049927  0.99414455  0.56911262    -0.14500
C2382       C  0.66777939  0.97816091  0.55957468    -0.29700
H2383       H  0.69909557  0.98990789  0.59067298     0.14500
H2384       H  0.65953919  0.98133385  0.53770720     0.15100
C2385       C  0.76692334  0.06955086  0.55783712    -0.14500
C2386       C  0.78023056  0.06318569  0.58298759    -0.29700
H2387       H  0.77465874  0.08806466  0.54529678     0.14500
H2388       H  0.77200027  0.04557091  0.59642486     0.15100
C2389       C  0.48674870  0.07022149  0.68523929    -0.14500
C2390       C  0.47526282  0.05926030  0.66069648    -0.29700
H2391       H  0.47712471  0.08954404  0.69481187     0.14500
H2392       H  0.48512731  0.04066176  0.65005484     0.15100
C2393       C  0.55935569  0.07683794  0.76235596    -0.14500
C2394       C  0.57738246  0.06460488  0.78170416    -0.29700
H2395       H  0.55433585  0.09987540  0.76427483     0.14500
H2396       H  0.58137362  0.04130403  0.78116966     0.15100
C2397       C  0.56507381  0.99709783  0.69139360    -0.14500
C2398       C  0.56009423  0.98634310  0.66470157    -0.29700
H2399       H  0.58201850  0.98752153  0.70465657     0.14500
H2400       H  0.54421127  0.99638156  0.65052563     0.15100
C2401       C  0.07427635  0.06584487  0.44566637    -0.14500
C2402       C  0.06668922  0.07457687  0.41858438    -0.29700
H2403       H  0.09536030  0.07088486  0.45483916     0.14500
H2404       H  0.04523675  0.06880935  0.41064159     0.15100
C2405       C  0.92893812  0.06550451  0.57382221    -0.14500
C2406       C  0.95674954  0.07170697  0.56644905    -0.29700
H2407       H  0.91981342  0.04488102  0.56653474     0.14500
H2408       H  0.96708209  0.09183833  0.57340470     0.15100
C2409       C  0.06835242  0.95261573  0.57058703    -0.14500
C2410       C  0.07798280  0.92572332  0.56323544    -0.29700
H2411       H  0.07149334  0.96158975  0.59218423     0.14500
H2412       H  0.07442606  0.91823400  0.54109970     0.15100
C2413       C  0.91157702  0.07059442  0.43604487    -0.14500
C2414       C  0.93246832  0.05317282  0.42562117    -0.29700
H2415       H  0.90474712  0.06854167  0.45851705     0.14500
H2416       H  0.94109359  0.05754494  0.40409916     0.15100
C2417       C  0.82357049  0.43290996  0.70434892    -0.14500
C2418       C  0.83212264  0.44002522  0.67718517    -0.29700
H2419       H  0.82911118  0.41208885  0.71396744     0.14500
H2420       H  0.82636072  0.46140999  0.66890587     0.15100
C2421       C  0.67533736  0.42072055  0.68140737    -0.14500
C2422       C  0.68522708  0.44629982  0.67097460    -0.29700
H2423       H  0.67914069  0.41512639  0.70403640     0.14500
H2424       H  0.68412095  0.45096201  0.64787360     0.15100
C2425       C  0.79780941  0.57732377  0.67931182    -0.14500
C2426       C  0.82311379  0.56549589  0.67082490    -0.29700
H2427       H  0.79399642  0.60053584  0.67689396     0.14500
H2428       H  0.82760868  0.54283366  0.67592771     0.15100
C2429       C  0.67623610  0.57978458  0.82005884    -0.14500
C2430       C  0.66813969  0.56070442  0.79935958    -0.29700
H2431       H  0.69860593  0.58713835  0.82119402     0.14500
H2432       H  0.64661853  0.55107531  0.80014488     0.15100
C2433       C  0.48795242  0.56722578  0.19431277    -0.14500
C2434       C  0.47482673  0.56061117  0.16899665    -0.29700
H2435       H  0.48112424  0.58642348  0.20627464     0.14500
H2436       H  0.48177039  0.54200496  0.15623846     0.15100
C2437       C  0.58461127  0.47757301  0.18385609    -0.14500
C2438       C  0.55753892  0.48794555  0.18212350    -0.29700
H2439       H  0.60007324  0.48722479  0.19887965     0.14500
H2440       H  0.54300141  0.47900047  0.16575501     0.15100
C2441       C  0.47721785  0.66646094  0.06157073    -0.14500
C2442       C  0.48622876  0.69425857  0.06254693    -0.29700
H2443       H  0.48952495  0.65055075  0.04928692     0.14500
H2444       H  0.47527468  0.70928936  0.07706663     0.15100
C2445       C  0.56516962  0.76444714  0.06093253    -0.14500
C2446       C  0.59227335  0.77283784  0.05452042    -0.29700
H2447       H  0.55379022  0.77539323  0.07845199     0.14500
H2448       H  0.60466901  0.76115871  0.03825157     0.15100
C2449       C  0.55604822  0.66016232  0.97741796    -0.14500
C2450       C  0.56363321  0.68661446  0.98754701    -0.29700
H2451       H  0.53931677  0.64755004  0.98827000     0.14500
H2452       H  0.58149944  0.69807028  0.97719212     0.15100
C2453       C  0.69177610  0.50137633  0.06851058    -0.14500
C2454       C  0.67107496  0.48293520  0.05891511    -0.29700
H2455       H  0.69954512  0.49910208  0.09068061     0.14500
H2456       H  0.66423580  0.48371757  0.03635122     0.15100
C2457       C  0.76791494  0.57624387  0.05475785    -0.14500
C2458       C  0.78240701  0.56973780  0.07924515    -0.29700
H2459       H  0.77408136  0.59576748  0.04288149     0.14500
H2460       H  0.77717834  0.55007959  0.09128653     0.15100
C2461       C  0.69148364  0.56731271  0.98232754    -0.14500
C2462       C  0.66611206  0.55802245  0.97127978    -0.29700
H2463       H  0.70189452  0.58613280  0.97242973     0.14500
H2464       H  0.65464595  0.54011086  0.98160557     0.15100
C2465       C  0.56016377  0.57942290  0.28090110    -0.14500
C2466       C  0.56950937  0.55801574  0.26318256    -0.29700
H2467       H  0.53842388  0.58795273  0.27837623     0.14500
H2468       H  0.59090527  0.54896194  0.26676431     0.15100
C2469       C  0.69091600  0.68128505  0.27171613    -0.14500
C2470       C  0.66556517  0.68829040  0.28417453    -0.29700
H2471       H  0.70257513  0.66248705  0.27991411     0.14500
H2472       H  0.65307323  0.70655520  0.27611135     0.15100
C2473       C  0.76462528  0.68420953  0.19574275    -0.14500
C2474       C  0.77434298  0.69106377  0.16907809    -0.29700
H2475       H  0.77570446  0.66736235  0.20798468     0.14500
H2476       H  0.76279164  0.70676191  0.15583411     0.15100
C2477       C  0.68449856  0.75563551  0.19394230    -0.14500
C2478       C  0.69203879  0.76620942  0.16769768    -0.29700
H2479       H  0.66612456  0.76504340  0.20520823     0.14500
H2480       H  0.70955007  0.75614230  0.15566106     0.15100
C2481       C  0.08344393  0.31812154  0.82630789    -0.14500
C2482       C  0.05594499  0.32491690  0.81871956    -0.29700
H2483       H  0.09244153  0.29773010  0.81849194     0.14500
H2484       H  0.04584290  0.34490142  0.82606403     0.15100
C2485       C  0.68094266  0.44548626  0.83508954    -0.14500
C2486       C  0.70716594  0.43607831  0.82618676    -0.12100
H2487       H  0.67389062  0.46692715  0.82809466     0.14500
H2488       H  0.71577279  0.41521831  0.83304167     0.15100
C2489       C  0.31586499  0.52304532  0.94558872    -0.14500
C2490       C  0.31667733  0.52926861  0.91708142    -0.29700
H2491       H  0.32873646  0.53607666  0.96058383     0.14500
H2492       H  0.30589927  0.51497390  0.90159626     0.15100
C2493       C  0.24270285  0.44559312  0.93499740    -0.14500
C2494       C  0.22064704  0.43031274  0.94652932    -0.29700
H2495       H  0.24396711  0.44793784  0.91154069     0.14500
H2496       H  0.21769508  0.42964909  0.96992277     0.15100
C2497       C  0.30765603  0.44898504  0.02088972    -0.14500
C2498       C  0.30633531  0.42031069  0.02658957    -0.29700
H2499       H  0.32149253  0.46270593  0.03434007     0.14500
H2500       H  0.29476420  0.40579572  0.01190933     0.15100
C2501       C  0.51155414  0.43224043  0.81682853    -0.14500
C2502       C  0.53090869  0.44194461  0.83648511    -0.29700
H2503       H  0.51269508  0.40976414  0.80947098     0.14500
H2504       H  0.53120762  0.46481235  0.84261038     0.15100
C2505       C  0.44979916  0.51929040  0.82241758    -0.14500
C2506       C  0.42671147  0.53510150  0.81428187    -0.29700
H2507       H  0.46032717  0.52423042  0.84298555     0.14500
H2508       H  0.41552008  0.53032630  0.79405767     0.15100
C2509       C  0.43660517  0.44911766  0.74246154    -0.14500
C2510       C  0.43903024  0.42202607  0.73164527    -0.29700
H2511       H  0.42041738  0.46363948  0.73343238     0.14500
H2512       H  0.45382954  0.40668235  0.74163714     0.15100
C2513       C  0.51681554  0.32367157  0.94615208    -0.14500
C2514       C  0.53462775  0.31705171  0.92410076    -0.29700
H2515       H  0.52004140  0.34418215  0.95758810     0.14500
H2516       H  0.53222061  0.29657590  0.91247452     0.15100
C2517       C  0.43271732  0.33848387  0.01775963    -0.14500
C2518       C  0.42980273  0.31176589  0.00603053    -0.29700
H2519       H  0.44916923  0.35344698  0.00980418     0.14500
H2520       H  0.41260426  0.29748326  0.01368529     0.15100
C2521       C  0.43061044  0.22088704  0.93994150    -0.14500
C2522       C  0.45161004  0.23907591  0.93068605    -0.29700
H2523       H  0.42118760  0.22384672  0.96133522     0.14500
H2524       H  0.46162542  0.23534275  0.90967927     0.15100
C2525       C  0.32500934  0.23763703  0.81861380    -0.14500
C2526       C  0.31799165  0.22077818  0.84136156    -0.29700
H2527       H  0.34476147  0.23301894  0.80669466     0.14500
H2528       H  0.29813979  0.22455571  0.85335203     0.15100
C2529       C  0.31417316  0.32231053  0.75481740    -0.14500
C2530       C  0.33478669  0.31296955  0.73648414    -0.29700
H2531       H  0.30525170  0.34399840  0.75201721     0.14500
H2532       H  0.34319514  0.29098352  0.73825041     0.15100
C2533       C  0.24781199  0.30941164  0.83744913    -0.14500
C2534       C  0.23322797  0.33387447  0.83092214    -0.29700
H2535       H  0.24165297  0.29692600  0.85652107     0.14500
H2536       H  0.23864317  0.34613593  0.81150376     0.15100
C2537       C  0.79302055  0.19130632  0.08090735    -0.14500
C2538       C  0.81757419  0.20256848  0.09239358    -0.29700
H2539       H  0.78582710  0.16933040  0.08593358     0.14500
H2540       H  0.82334372  0.22490175  0.08694730     0.15100
C2541       C  0.69307048  0.17653479  0.92239534    -0.14500
C2542       C  0.68691141  0.18286241  0.95035594    -0.29700
H2543       H  0.71284068  0.18514718  0.91284611     0.14500
H2544       H  0.66740392  0.17458902  0.96064181     0.15100
C2545       C  0.67773122  0.30407266  0.06250461    -0.14500
C2546       C  0.67085677  0.33141008  0.05401685    -0.29700
H2547       H  0.66968704  0.29501003  0.08271993     0.14500
H2548       H  0.67903743  0.33893610  0.03321263     0.15100
C2549       C  0.71058805  0.33135607  0.92976342    -0.14500
C2550       C  0.68441777  0.33769137  0.94094950    -0.29700
H2551       H  0.71517711  0.33548776  0.90700046     0.14500
H2552       H  0.67916781  0.33033575  0.96277742     0.15100
C2553       C  0.83159004  0.31471698  0.05664634    -0.14500
C2554       C  0.82084638  0.32108817  0.08315844    -0.29700
H2555       H  0.85433748  0.31830416  0.05181580     0.14500
H2556       H  0.79873329  0.31480970  0.08838609     0.15100
C2557       C  0.79064121  0.07647143  0.17569485    -0.14500
C2558       C  0.81716253  0.08327943  0.18596339    -0.29700
H2559       H  0.78475750  0.08127011  0.15336468     0.14500
H2560       H  0.82351094  0.07541270  0.20731732     0.15100
C2561       C  0.66977197  0.06679676  0.30291957    -0.14500
C2562       C  0.67979241  0.07543051  0.32907933    -0.29700
H2563       H  0.64669026  0.06719930  0.29836404     0.14500
H2564       H  0.70237343  0.07186452  0.33466384     0.15100
C2565       C  0.67716611  0.94360112  0.18167745    -0.14500
C2566       C  0.69083791  0.91873612  0.17457004    -0.29700
H2567       H  0.65431392  0.94653786  0.17698045     0.14500
H2568       H  0.71296078  0.91519001  0.18182006     0.15100
C2569       C  0.81625849  0.05241431  0.31932552    -0.14500
C2570       C  0.82592783  0.07907593  0.31109373    -0.29700
H2571       H  0.82023600  0.04393002  0.34093782     0.14500
H2572       H  0.82125673  0.08622233  0.28909529     0.15100
C2573       C  0.08520555  0.92189647  0.43792207    -0.14500
C2574       C  0.06040443  0.93012656  0.42470707    -0.29700
H2575       H  0.08884768  0.92772127  0.46053619     0.14500
H2576       H  0.05749200  0.92672985  0.40152733     0.15100
C2577       C  0.44144002  0.82788574  0.50864871    -0.14500
C2578       C  0.42527155  0.81668663  0.53012032    -0.29700
H2579       H  0.44595271  0.85116916  0.50857288     0.14500
H2580       H  0.42222326  0.79326836  0.53190172     0.15100
C2581       C  0.32155257  0.93822723  0.51157607    -0.14500
C2582       C  0.34538402  0.94601538  0.52662498    -0.29700
H2583       H  0.31084186  0.91789918  0.51738618     0.14500
H2584       H  0.35608800  0.96667165  0.52228820     0.15100
C2585       C  0.32054452  0.01993828  0.43918941    -0.14500
C2586       C  0.34701660  0.03099082  0.44465166    -0.29700
H2587       H  0.30780683  0.02991399  0.42202459     0.14500
H2588       H  0.36093161  0.02094461  0.46076257     0.15100
C2589       C  0.24690081  0.94338463  0.43583468    -0.14500
C2590       C  0.23697236  0.91638652  0.44162776    -0.29700
H2591       H  0.23678277  0.95583776  0.41855025     0.14500
H2592       H  0.24783820  0.90311021  0.45778713     0.15100
C2593       C  0.70422571  0.92874832  0.32014905    -0.14500
C2594       C  0.68461406  0.93757604  0.33982355    -0.29700
H2595       H  0.70535839  0.90613076  0.31339305     0.14500
H2596       H  0.68307841  0.96076160  0.34435376     0.15100
C2597       C  0.52834309  0.80875623  0.41162701    -0.14500
C2598       C  0.50962156  0.82241935  0.42916817    -0.29700
H2599       H  0.52772965  0.78519113  0.40940556     0.14500
H2600       H  0.51237577  0.84570549  0.43276015     0.15100
C2601       C  0.51838365  0.93352136  0.30975509    -0.14500
C2602       C  0.53348526  0.93835670  0.33431777    -0.29700
H2603       H  0.52352324  0.91456361  0.29659463     0.14500
H2604       H  0.52918304  0.95753710  0.34743150     0.15100
C2605       C  0.43509385  0.94784179  0.24508781    -0.14500
C2606       C  0.44474863  0.92883836  0.22504025    -0.29700
H2607       H  0.41275793  0.95508208  0.24413223     0.14500
H2608       H  0.46741007  0.92264868  0.22480270     0.15100
C2609       C  0.45046332  0.01374193  0.32869751    -0.14500
C2610       C  0.43297806  0.03520709  0.31950381    -0.29700
H2611       H  0.45747005  0.01358214  0.35124165     0.14500
H2612       H  0.42738991  0.03681712  0.29663508     0.15100
C2613       C  0.44341344  0.72977956  0.41845380    -0.14500
C2614       C  0.43933922  0.74156478  0.44487822    -0.29700
H2615       H  0.45805068  0.74025690  0.40321593     0.14500
H2616       H  0.42310370  0.73208826  0.45912866     0.15100
C2617       C  0.25249391  0.82144098  0.31461019    -0.14500
C2618       C  0.23380414  0.80928597  0.33348959    -0.29700
H2619       H  0.25061961  0.84446858  0.30950785     0.14500
H2620       H  0.23435851  0.78598453  0.33755640     0.15100
C2621       C  0.31872749  0.73815537  0.31493153    -0.14500
C2622       C  0.34278110  0.72403579  0.30660422    -0.29700
H2623       H  0.30818535  0.73162073  0.33500342     0.14500
H2624       H  0.35398548  0.73010512  0.28678256     0.15100
C2625       C  0.32715013  0.81270774  0.23857050    -0.14500
C2626       C  0.32190559  0.83928564  0.22756566    -0.29700
H2627       H  0.34458908  0.79983653  0.22939786     0.14500
H2628       H  0.30502033  0.85291522  0.23661515     0.15100
C2629       C  0.43137359  0.05897356  0.08729272    -0.14500
C2630       C  0.45680757  0.07109542  0.07933051    -0.29700
H2631       H  0.42668263  0.03649856  0.08135604     0.14500
H2632       H  0.46040647  0.09431927  0.08236749     0.15100
C2633       C  0.59335694  0.06307580  0.93279361    -0.14500
C2634       C  0.58481381  0.07548140  0.95791147    -0.29700
H2635       H  0.58886677  0.04009671  0.92899033     0.14500
H2636       H  0.58628339  0.09895674  0.96070869     0.15100
C2637       C  0.58518156  0.94997245  0.07708952    -0.14500
C2638       C  0.59327360  0.92537655  0.06318810    -0.29700
H2639       H  0.58804151  0.95203317  0.10042742     0.14500
H2640       H  0.58744495  0.92241591  0.04047497     0.15100
C2641       C  0.44373877  0.92629431  0.04991885    -0.14500
C2642       C  0.45118285  0.91527952  0.07604872    -0.29700
H2643       H  0.42205623  0.92325385  0.04125076     0.14500
H2644       H  0.47319381  0.91862185  0.08383020     0.15100
C2645       C  0.42929263  0.06823371  0.93964732    -0.14500
C2646       C  0.44854452  0.04792314  0.93152820    -0.29700
H2647       H  0.42474054  0.07057821  0.96270748     0.14500
H2648       H  0.45554415  0.04584834  0.90918791     0.15100
C2649       C  0.06650106  0.80529463  0.18527413    -0.14500
C2650       C  0.05846194  0.83195392  0.17580497    -0.29700
H2651       H  0.08752439  0.79631384  0.17999435     0.14500
H2652       H  0.03715311  0.83988220  0.18178152     0.15100
C2653       C  0.93414097  0.69695667  0.33088494    -0.14500
C2654       C  0.91231224  0.68078847  0.31979989    -0.29700
H2655       H  0.94288690  0.69159695  0.35211990     0.14500
H2656       H  0.90549909  0.68422057  0.29747009     0.15100
C2657       C  0.95200521  0.68852541  0.18424913    -0.14500
C2658       C  0.92581704  0.69790659  0.17497084    -0.29700
H2659       H  0.96019457  0.66715248  0.17856692     0.14500
H2660       H  0.91902481  0.71966784  0.18120883     0.15100
C2661       C  0.08242849  0.80855297  0.33950432    -0.14500
C2662       C  0.05764733  0.82153839  0.33114107    -0.29700
H2663       H  0.08594072  0.78576801  0.33412749     0.14500
H2664       H  0.05524494  0.84495596  0.33358749     0.15100
C2665       C  0.07512779  0.68330790  0.29809101    -0.14500
C2666       C  0.08276381  0.68956571  0.32581459    -0.29700
H2667       H  0.08259919  0.66369127  0.28731348     0.14500
H2668       H  0.07499569  0.70967229  0.33553040     0.15100
C2669       C  0.80916876  0.70049731  0.43068952    -0.14500
C2670       C  0.81377756  0.67156412  0.43437046    -0.29700
H2671       H  0.81591423  0.71171722  0.41108840     0.14500
H2672       H  0.80658613  0.66147692  0.45446529     0.15100
C2673       C  0.70261572  0.81759192  0.43469796    -0.14500
C2674       C  0.67906818  0.80763430  0.42041780    -0.29700
H2675       H  0.70912652  0.84032906  0.43386180     0.14500
H2676       H  0.67363676  0.78461845  0.42219433     0.15100
C2677       C  0.66062608  0.82543400  0.56831277    -0.14500
C2678       C  0.68157901  0.80834527  0.57902484    -0.29700
H2679       H  0.65341688  0.82261510  0.54600515     0.14500
H2680       H  0.69060556  0.81312482  0.60032313     0.15100
C2681       C  0.66798661  0.67942606  0.46107180    -0.14500
C2682       C  0.67822672  0.67160029  0.43476928    -0.29700
H2683       H  0.64508318  0.67734135  0.46598498     0.14500
H2684       H  0.70052257  0.67684100  0.42917618     0.15100
C2685       C  0.79848982  0.67674252  0.57703371    -0.14500
C2686       C  0.82362538  0.66966837  0.56399004    -0.29700
H2687       H  0.79557914  0.67324750  0.60018538     0.14500
H2688       H  0.82744200  0.67613910  0.54160193     0.15100
C2689       C  0.18593443  0.08332126  0.82930038    -0.14500
C2690       C  0.17674189  0.06229871  0.81104926    -0.29700
H2691       H  0.20837010  0.09050905  0.82862162     0.14500
H2692       H  0.15521416  0.05304808  0.81373373     0.15100
C2693       C  0.18378316  0.94876166  0.68042897    -0.14500
C2694       C  0.16134467  0.93261953  0.68969742    -0.29700
H2695       H  0.19278770  0.94471743  0.65900825     0.14500
H2696       H  0.15377357  0.93474940  0.71192460     0.15100
C2697       C  0.32466873  0.06262304  0.67389156    -0.14500
C2698       C  0.30171873  0.07583081  0.68623120    -0.29700
H2699       H  0.32820994  0.03951405  0.67766900     0.14500
H2700       H  0.29916109  0.09931043  0.68502303     0.15100
C2701       C  0.32650252  0.93648599  0.67469552    -0.14500
C2702       C  0.32865931  0.93729241  0.70411805    -0.29700
H2703       H  0.30886887  0.94802733  0.66424183     0.14500
H2704       H  0.34639787  0.92675730  0.71537953     0.15100
C2705       C  0.32372008  0.04409539  0.82799206    -0.14500
C2706       C  0.33214601  0.07166857  0.82191591    -0.29700
H2707       H  0.32888817  0.03387622  0.84858737     0.14500
H2708       H  0.32638186  0.08079267  0.80090488     0.15100
C2709       C  0.06241245  0.45799089  0.07966856    -0.14500
C2710       C  0.05410593  0.43098959  0.08858377    -0.29700
H2711       H  0.08364745  0.46669437  0.08504113     0.14500
H2712       H  0.03249334  0.42341330  0.08294175     0.15100
C2713       C  0.06955188  0.57209950  0.95266999    -0.14500
C2714       C  0.07506754  0.56667709  0.92421585    -0.29700
H2715       H  0.07690449  0.59211920  0.96292425     0.14500
H2716       H  0.06673357  0.54662375  0.91471953     0.15100
C2717       C  0.93418313  0.57651221  0.08488791    -0.14500
C2718       C  0.95391495  0.58441874  0.06487762    -0.29700
H2719       H  0.93311020  0.55366472  0.09104500     0.14500
H2720       H  0.95402873  0.60626090  0.05594765     0.15100
C2721       C  0.06999923  0.42979965  0.92692371    -0.14500
C2722       C  0.05015787  0.42080692  0.94637319    -0.29700
H2723       H  0.06979548  0.45225548  0.91946953     0.14500
H2724       H  0.05187708  0.39925989  0.95592245     0.15100
C2725       C  0.91491533  0.44695338  0.05790489    -0.14500
C2726       C  0.92432480  0.42914668  0.07910507    -0.29700
H2727       H  0.89310263  0.45558590  0.05869771     0.14500
H2728       H  0.94709557  0.42338010  0.07998805     0.15100
C2729       C  0.17399340  0.80027779  0.06923702    -0.14500
C2730       C  0.18164820  0.81913792  0.09031597    -0.29700
H2731       H  0.15312695  0.80259181  0.05861227     0.14500
H2732       H  0.20350098  0.81854420  0.09905218     0.15100
C2733       C  0.19341038  0.67293447  0.95015097    -0.14500
C2734       C  0.17354110  0.68187747  0.93096847    -0.29700
H2735       H  0.20289836  0.65146728  0.94768295     0.14500
H2736       H  0.16632642  0.70437750  0.93121464     0.15100
C2737       C  0.33551706  0.67691163  0.94595172    -0.14500
C2738       C  0.32938443  0.70515923  0.94019732    -0.29700
H2739       H  0.32778673  0.66722131  0.96603623     0.14500
H2740       H  0.33669479  0.71538732  0.92024199     0.15100
C2741       C  0.30266348  0.68277736  0.08300099    -0.14500
C2742       C  0.32936425  0.69347993  0.08837328    -0.29700
H2743       H  0.29779997  0.65996668  0.08716284     0.14500
H2744       H  0.33501130  0.71524899  0.08091669     0.15100
C2745       C  0.32502412  0.82498133  0.05128045    -0.14500
C2746       C  0.33134892  0.81975907  0.07952441    -0.29700
H2747       H  0.33333544  0.84415732  0.04024287     0.14500
H2748       H  0.32287194  0.80003830  0.08952292     0.15100
C2749       C  0.42050588  0.68724499  0.68450941    -0.14500
C2750       C  0.44902203  0.68329185  0.69009437    -0.29700
H2751       H  0.41013595  0.70652232  0.69334742     0.14500
H2752       H  0.46046284  0.66451295  0.68165325     0.15100
C2753       C  0.42764614  0.83066481  0.70746303    -0.14500
C2754       C  0.41977353  0.81855843  0.68188994    -0.29700
H2755       H  0.42591823  0.85404865  0.71070551     0.14500
H2756       H  0.42439051  0.79570201  0.67785964     0.15100
C2757       C  0.44155417  0.68504358  0.84033088    -0.14500
C2758       C  0.42962750  0.71102244  0.83398117    -0.29700
H2759       H  0.46361922  0.68052805  0.83352185     0.14500
H2760       H  0.40667577  0.71461337  0.83754035     0.15100
C2761       C  0.56592223  0.68240393  0.80012468    -0.14500
C2762       C  0.55656704  0.67161656  0.82591299    -0.29700
H2763       H  0.58740541  0.67779270  0.79188803     0.14500
H2764       H  0.53469049  0.67686157  0.83273497     0.15100
C2765       C  0.56036136  0.80779654  0.68146330    -0.14500
C2766       C  0.56677509  0.83629455  0.68639341    -0.29700
H2767       H  0.56611621  0.79719711  0.66121961     0.14500
H2768       H  0.56046049  0.84584083  0.70703228     0.15100
C2769       C  0.18346490  0.17196219  0.42532709    -0.14500
C2770       C  0.17415152  0.19051220  0.44583997    -0.29700
H2771       H  0.20610838  0.16573215  0.42470127     0.14500
H2772       H  0.15221700  0.19886817  0.44462493     0.15100
C2773       C  0.29346380  0.16872811  0.56907298    -0.14500
C2774       C  0.31655022  0.15675597  0.55581182    -0.29700
H2775       H  0.29174467  0.16784463  0.59259055     0.14500
H2776       H  0.31969578  0.16044702  0.53270408     0.15100
C2777       C  0.31928688  0.31934654  0.55942502    -0.14500
C2778       C  0.31349299  0.32387284  0.58786771    -0.29700
H2779       H  0.33830059  0.32892457  0.54933469     0.14500
H2780       H  0.29403065  0.31415224  0.59697846     0.15100
C2781       C  0.18006045  0.31473042  0.42353680    -0.14500
C2782       C  0.20697749  0.32279544  0.43256959    -0.29700
H2783       H  0.17268596  0.29270670  0.42825444     0.14500
H2784       H  0.21561570  0.34441978  0.42842460     0.15100
C2785       C  0.32713884  0.20819664  0.43700404    -0.14500
C2786       C  0.32402269  0.17923193  0.43172747    -0.29700
H2787       H  0.34638302  0.21989426  0.43002219     0.14500
H2788       H  0.30457682  0.16826679  0.43936132     0.15100
C2789       C  0.18022151  0.30473489  0.57620959    -0.14500
C2790       C  0.17076137  0.32968475  0.56410351    -0.29700
H2791       H  0.17829507  0.30134727  0.59947779     0.14500
H2792       H  0.17528457  0.33424546  0.54138508     0.15100
C2793       C  0.16746525  0.43188916  0.19070670    -0.14500
C2794       C  0.17563824  0.45865371  0.18128549    -0.29700
H2795       H  0.17508795  0.42474336  0.21187410     0.14500
H2796       H  0.16821027  0.46721258  0.16062735     0.15100
C2797       C  0.30030811  0.57737337  0.18165509    -0.14500
C2798       C  0.32792259  0.58331885  0.18972699    -0.29700
H2799       H  0.29166273  0.58508435  0.16112743     0.14500
H2800       H  0.33585155  0.57556935  0.21056147     0.15100
C2801       C  0.33683901  0.57205452  0.31905924    -0.14500
C2802       C  0.31479544  0.55495141  0.32791887    -0.29700
H2803       H  0.34519911  0.56957483  0.29715660     0.14500
H2804       H  0.30451845  0.55909654  0.34870117     0.15100
C2805       C  0.17909162  0.43549546  0.33137770    -0.14500
C2806       C  0.19727300  0.42659233  0.31045795    -0.29700
H2807       H  0.17938165  0.45805975  0.33856117     0.14500
H2808       H  0.19526977  0.40469946  0.30161830     0.15100
C2809       C  0.19875331  0.59176310  0.32018968    -0.14500
C2810       C  0.18783349  0.58251797  0.29442687    -0.29700
H2811       H  0.22073403  0.58551484  0.32571129     0.14500
H2812       H  0.16629666  0.58854866  0.28724971     0.15100
C2813       C  0.32546015  0.43834427  0.19571156    -0.14500
C2814       C  0.31555093  0.41678756  0.17849664    -0.29700
H2815       H  0.34705327  0.44715971  0.19222289     0.14500
H2816       H  0.29322311  0.40949530  0.18040138     0.15100
C2817       C  0.93929392  0.20688397  0.82550784    -0.14500
C2818       C  0.94793154  0.17999806  0.83391977    -0.29700
H2819       H  0.91804060  0.21519577  0.83100234     0.14500
H2820       H  0.96972871  0.17315688  0.82836855     0.15100
C2821       C  0.82632422  0.20290087  0.92576158    -0.14500
C2822       C  0.83412728  0.17601788  0.93426185    -0.29700
H2823       H  0.82960048  0.20955893  0.90336190     0.14500
H2824       H  0.82799153  0.16849759  0.95578471     0.15100
C2825       C  0.59041831  0.93531534  0.93544947    -0.14500
C2826       C  0.56208498  0.92979957  0.94089290    -0.29700
H2827       H  0.59963898  0.95602683  0.94237601     0.14500
H2828       H  0.55199870  0.90932260  0.93462698     0.15100
C2829       C  0.57863544  0.81559794  0.84391855    -0.14500
C2830       C  0.56172240  0.82619156  0.82271784    -0.29700
H2831       H  0.57510414  0.79361500  0.85194058     0.14500
H2832       H  0.56733482  0.84697693  0.81290177     0.15100
C2833       C  0.82431501  0.58369272  0.81101146    -0.14500
C2834       C  0.81890806  0.55523978  0.81678639    -0.29700
H2835       H  0.81571436  0.59295116  0.79109895     0.14500
H2836       H  0.82696978  0.54503618  0.83642800     0.15100
C2837       C  0.91787278  0.57007670  0.92626531    -0.14500
C2838       C  0.93880799  0.55143480  0.91835843    -0.29700
H2839       H  0.90871695  0.56862661  0.94794436     0.14500
H2840       H  0.94991577  0.55424267  0.89779005     0.15100
C2841       C  0.91914167  0.93317413  0.56698616    -0.14500
C2842       C  0.93777398  0.92338495  0.54684007    -0.29700
H2843       H  0.91270256  0.95590440  0.56682508     0.14500
H2844       H  0.94644440  0.90150783  0.54886862     0.15100
C2845       C  0.83426437  0.80682370  0.57803762    -0.14500
C2846       C  0.82189999  0.81536066  0.55286048    -0.29700
H2847       H  0.83069657  0.78451661  0.58516133     0.14500
H2848       H  0.82454979  0.83737215  0.54468078     0.15100
C2849       C  0.81824153  0.93141373  0.20378934    -0.14500
C2850       C  0.81072530  0.92173426  0.17699700    -0.29700
H2851       H  0.83901005  0.92604729  0.21339177     0.14500
H2852       H  0.78932671  0.92711407  0.16884489     0.15100
C2853       C  0.92117523  0.81799364  0.18608647    -0.14500
C2854       C  0.92828074  0.82899879  0.21233435    -0.29700
H2855       H  0.92711766  0.79567795  0.18089221     0.14500
H2856       H  0.92554864  0.85206772  0.21681150     0.15100
C2857       C  0.18153619  0.93152929  0.83238238    -0.14500
C2858       C  0.20907362  0.92477001  0.82498440    -0.29700
H2859       H  0.17295472  0.95252126  0.82575901     0.14500
H2860       H  0.21870388  0.90424291  0.83144673     0.15100
C2861       C  0.17747364  0.82622704  0.94293762    -0.14500
C2862       C  0.20546657  0.82066360  0.93631881    -0.29700
H2863       H  0.16888415  0.81812357  0.96337199     0.14500
H2864       H  0.21510216  0.82843299  0.91627414     0.15100
C2865       C  0.95514195  0.93092873  0.73553878    -0.14500
C2866       C  0.93183581  0.93756956  0.71920990    -0.29700
H2867       H  0.96670229  0.91085697  0.73105321     0.14500
H2868       H  0.92051183  0.95792395  0.72285415     0.15100
C2869       C  0.01763651  0.94153216  0.82189241    -0.14500
C2870       C  0.03340774  0.91788001  0.81515931    -0.29700
H2871       H  0.02130999  0.95230869  0.84261942     0.14500
H2872       H  0.03051893  0.90717683  0.79429731     0.15100
C2873       C  0.93700060  0.00966789  0.80626986    -0.14500
C2874       C  0.94570165  0.02877108  0.82675642    -0.29700
H2875       H  0.91530149  0.01148438  0.79733345     0.14500
H2876       H  0.96780845  0.02821824  0.83479424     0.15100
C2877       C  0.94436793  0.73834401  0.93589709    -0.14500
C2878       C  0.92175611  0.72174129  0.94431068    -0.29700
H2879       H  0.95340271  0.73518660  0.91434944     0.14500
H2880       H  0.91283314  0.72403391  0.96599772     0.15100
C2881       C  0.93560682  0.80293956  0.02031022    -0.14500
C2882       C  0.94128619  0.82719451  0.03577450    -0.29700
H2883       H  0.91611029  0.79057420  0.02531729     0.14500
H2884       H  0.96064808  0.83997099  0.03144970     0.15100
C2885       C  0.01522813  0.81816547  0.94981477    -0.14500
C2886       C  0.02781976  0.81353412  0.92383049    -0.29700
H2887       H  0.02304644  0.83596817  0.96334348     0.14500
H2888       H  0.01981556  0.79635728  0.90964972     0.15100
C2889       C  0.82860271  0.01561549  0.94174850    -0.14500
C2890       C  0.82276440  0.02642762  0.91530591    -0.29700
H2891       H  0.84595626  0.02538911  0.95449605     0.14500
H2892       H  0.80630825  0.01645932  0.90160828     0.15100
C2893       C  0.75474070  0.93836393  0.93413989    -0.14500
C2894       C  0.73935815  0.91563666  0.94427736    -0.29700
H2895       H  0.74902681  0.94755564  0.91316172     0.14500
H2896       H  0.74392681  0.90669986  0.96561634     0.15100
C2897       C  0.82651471  0.93888191  0.01471008    -0.14500
C2898       C  0.81834998  0.91320480  0.02604480    -0.29700
H2899       H  0.84451480  0.95055526  0.02468171     0.14500
H2900       H  0.80114592  0.90044084  0.01605604     0.15100
C2901       C  0.81718655  0.74045783  0.80949515    -0.14500
C2902       C  0.81539914  0.73313947  0.83765927    -0.29700
H2903       H  0.83099927  0.72782352  0.79518466     0.14500
H2904       H  0.80379184  0.74704451  0.85274221     0.15100
C2905       C  0.74306741  0.81807680  0.81372530    -0.14500
C2906       C  0.73016918  0.80803217  0.83786599    -0.29700
H2907       H  0.73618897  0.83889473  0.80490792     0.14500
H2908       H  0.73629421  0.78719445  0.84711033     0.15100
C2909       C  0.81660587  0.81980880  0.73795272    -0.14500
C2910       C  0.84370675  0.81467558  0.72879852    -0.29700
H2911       H  0.80395614  0.83658381  0.72724724     0.14500
H2912       H  0.85736264  0.79923768  0.74019387     0.15100
C2913       C  0.45481513  0.17415196  0.18000438    -0.14500
C2914       C  0.43117854  0.16403914  0.19398608    -0.29700
H2915       H  0.45684321  0.17146891  0.15664276     0.14500
H2916       H  0.42790228  0.16946876  0.21673746     0.15100
C2917       C  0.54907922  0.33325050  0.30642567    -0.14500
C2918       C  0.57719289  0.32909353  0.31347429    -0.29700
H2919       H  0.53791049  0.35315545  0.31228615     0.14500
H2920       H  0.58740264  0.30873212  0.30726678     0.15100
C2921       C  0.57085119  0.18734605  0.30728763    -0.14500
C2922       C  0.55990801  0.16527013  0.32312315    -0.29700
H2923       H  0.59196576  0.19629108  0.31287149     0.14500
H2924       H  0.53780326  0.15795956  0.31940625     0.15100
C2925       C  0.57663064  0.30109683  0.17150074    -0.14500
C2926       C  0.56629945  0.32736298  0.16349640    -0.29700
H2927       H  0.59943483  0.29621804  0.16867876     0.14500
H2928       H  0.54428742  0.33316710  0.16941064     0.15100
C2929       C  0.43869563  0.32990237  0.16860409    -0.14500
C2930       C  0.43024367  0.31917515  0.19460269    -0.29700
H2931       H  0.46086229  0.32616462  0.16172378     0.14500
H2932       H  0.40850913  0.32241452  0.20285436     0.15100
C2933       C  0.43108334  0.21230995  0.32006939    -0.14500
C2934       C  0.42283522  0.18449491  0.31445376    -0.29700
H2935       H  0.42686686  0.22234518  0.34099296     0.14500
H2936       H  0.42713878  0.17572617  0.29294557     0.15100
C2937       C  0.54783493  0.42602751  0.43916899    -0.14500
C2938       C  0.56426958  0.43841496  0.41841606    -0.29700
H2939       H  0.55246339  0.40402774  0.44645136     0.14500
H2940       H  0.56126252  0.46124332  0.41301166     0.15100
C2941       C  0.45401481  0.57642670  0.57716471    -0.14500
C2942       C  0.42841986  0.58739946  0.56789587    -0.29700
H2943       H  0.46172110  0.58019000  0.59914655     0.14500
H2944       H  0.42208978  0.58347463  0.54546386     0.15100
C2945       C  0.43121328  0.55312519  0.43205852    -0.14500
C2946       C  0.42241963  0.57929671  0.44199074    -0.29700
H2947       H  0.43106901  0.54862379  0.40887927     0.14500
H2948       H  0.42559717  0.58488775  0.46473393     0.15100
C2949       C  0.41828143  0.43051834  0.55692951    -0.14500
C2950       C  0.41026869  0.44123149  0.58293648    -0.29700
H2951       H  0.41612718  0.40731393  0.55264444     0.14500
H2952       H  0.41561330  0.46369119  0.58838666     0.15100
C2953       C  0.56774133  0.56828827  0.45927453    -0.14500
C2954       C  0.57288886  0.56215283  0.43089871    -0.29700
H2955       H  0.57566600  0.58828983  0.46914864     0.14500
H2956       H  0.56473551  0.54170372  0.42211104     0.15100
C2957       C  0.56545470  0.44874723  0.57766012    -0.14500
C2958       C  0.55950734  0.42037649  0.58352914    -0.29700
H2959       H  0.58613016  0.45840767  0.58361317     0.14500
H2960       H  0.53853788  0.41159149  0.57719237     0.15100
loop_ 
_geom_bond_atom_site_label_1 
_geom_bond_atom_site_label_2 
_geom_bond_distance 
_geom_bond_site_symmetry_2 
_ccdc_geom_bond_type 
O1           C17   1.271       .  A
O1           Zn7   1.990       .  S
C2           O18   1.271       .  A
C2           O15   1.273       .  A
C2         C2945   1.467       .  S
O3           C16   1.282       .  A
O3          Cd10   2.135       .  S
O4           C22   1.266       .  A
O4          Cd13   1.998       .  S
O5           C19   1.272       .  A
O5           Cd9   2.060       .  S
O6           C17   1.271       .  A
O6           Cd9   2.064       .  S
Zn7          O18   2.005       .  S
Zn7          O20   1.937       .  S
Zn7          O12   1.917       .  S
O8           C19   1.276       .  A
O8          Cd13   2.078       .  S
Cd9          O11   2.008       .  S
Cd9          O12   1.980       .  S
Cd10         O14   2.135       .  S
Cd10         O23   2.144       .  S
Cd10         O12   2.045       .  S
O11          C21   1.268       .  A
O12         Cd13   1.968       .  S
Cd13         O15   2.061       .  S
O14          C21   1.284       .  A
C16          O20   1.265       .  A
C16        C2953   1.484       .  S
C17        C2937   1.472       .  S
C19        C2949   1.470       .  S
C21        C2957   1.485       .  S
C22          O23   1.283       .  A
C22        C2941   1.485       .  S
O24          C40   1.272       .  A
O24         Zn30   1.986       .  S
C25          O41   1.273       .  A
C25          O38   1.272       .  A
C25        C2921   1.473       .  S
O26          C39   1.280       .  A
O26         Cd33   2.132       .  S
O27          C45   1.268       .  A
O27         Cd36   2.007       .  S
O28          C42   1.273       .  A
O28         Cd32   2.070       .  S
O29          C40   1.275       .  A
O29         Cd32   2.073       .  S
Zn30         O41   2.013       .  S
Zn30         O43   1.944       .  S
Zn30         O35   1.910       .  S
O31          C42   1.274       .  A
O31         Cd36   2.081       .  S
Cd32         O34   2.008       .  S
Cd32         O35   1.977       .  S
Cd33         O37   2.110       .  S
Cd33         O46   2.114       .  S
Cd33         O35   2.040       .  S
O34          C44   1.267       .  A
O35         Cd36   1.976       .  S
Cd36         O38   2.057       .  S
O37          C44   1.280       .  A
C39          O43   1.265       .  A
C39        C2933   1.485       .  S
C40        C2913   1.466       .  S
C42        C2925   1.477       .  S
C44        C2930   1.469       .  S
C45          O46   1.280       .  A
C45        C2917   1.477       .  S
C47        C2901   1.476       .  S
C47          N48   1.363       .  A
C47          N52   1.359       .  A
N48          C49   1.362       .  A
C49        C2905   1.479       .  S
C49          N50   1.357       .  A
N50          C51   1.356       .  A
C51        C2909   1.476       .  S
C51          N52   1.359       .  A
C53        C2893   1.481       .  S
C53          N54   1.364       .  A
C53          N58   1.360       .  A
N54          C55   1.363       .  A
C55        C2897   1.479   1_556  S
C55          N56   1.357       .  A
N56          C57   1.355       .  A
C57        C2889   1.478   1_565  S
C57          N58   1.359       .  A
C59        C2881   1.484   1_556  S
C59          N60   1.358       .  A
C59          N64   1.364       .  A
N60          C61   1.359       .  A
C61        C2877   1.483       .  S
C61          N62   1.360       .  A
N62          C63   1.363       .  A
C63        C2885   1.489   1_655  S
C63          N64   1.364       .  A
C65        C2865   1.487       .  S
C65          N66   1.361       .  A
C65          N70   1.362       .  A
N66          C67   1.362       .  A
C67        C2869   1.486   1_655  S
C67          N68   1.361       .  A
N68          C69   1.362       .  A
C69        C2873   1.485   1_565  S
C69          N70   1.361       .  A
N71          C76   1.354       .  A
N71          C75   1.354       .  A
N71         H103   1.036       .  S
N72          C79   1.357       .  A
N72          C80   1.354       .  A
N73          C78   1.353       .  A
N73          C77   1.351       .  A
N73         H104   1.041       .  S
N74          C81   1.355       .  A
N74          C82   1.353       .  A
C75          C83   1.386       .  A
C75          C91   1.416       .  A
C76          C92   1.419       .  A
C76          C84   1.388       .  A
C77          C85   1.388       .  A
C77          C94   1.412       .  A
C78          C93   1.410       .  A
C78          C86   1.385       .  A
C79          C91   1.417       .  A
C79          C87   1.384       .  A
C80          C94   1.422       .  A
C80          C88   1.389       .  A
C81          C89   1.385       .  A
C81          C92   1.416       .  A
C82          C90   1.388       .  A
C82          C93   1.418       .  A
C83          C84   1.378       .  A
C83          H95   1.082   1_455  S
C84          H96   1.082   1_455  S
C85          C86   1.375       .  A
C85          H97   1.082       .  S
C86          H98   1.082       .  S
C87          C88   1.374       .  A
C87          H99   1.082       .  S
C88         H100   1.082       .  S
C89          C90   1.373       .  A
C89         H101   1.082       .  S
C90         H102   1.083       .  S
C91        C2886   1.494       .  S
C92        C2870   1.492       .  S
C93        C2857   1.488       .  S
C94        C2861   1.489       .  S
N105        C110   1.354       .  A
N105        C109   1.353       .  A
N105        H137   1.035       .  S
N106        C113   1.355       .  A
N106        C114   1.354       .  A
N107        C112   1.353       .  A
N107        C111   1.354       .  A
N107        H138   1.039       .  S
N108        C115   1.356       .  A
N108        C116   1.353       .  A
C109        C117   1.387       .  A
C109        C125   1.416       .  A
C110        C126   1.420       .  A
C110        C118   1.389       .  A
C111        C119   1.385       .  A
C111        C128   1.412       .  A
C112        C127   1.415       .  A
C112        C120   1.388       .  A
C113        C125   1.416       .  A
C113        C121   1.385       .  A
C114        C128   1.420       .  A
C114        C122   1.389       .  A
C115        C123   1.385       .  A
C115        C126   1.418       .  A
C116        C124   1.388       .  A
C116        C127   1.419       .  A
C117        C118   1.375       .  A
C117        H129   1.082   1_554  S
C118        H130   1.081       .  S
C119        C120   1.372       .  A
C119        H131   1.082       .  S
C120        H132   1.082       .  S
C121        C122   1.372       .  A
C121        H133   1.082       .  S
C122        H134   1.082       .  S
C123        C124   1.376       .  A
C123        H135   1.082       .  S
C124        H136   1.082       .  S
C125       C2898   1.489       .  S
C126       C2882   1.495       .  S
C127       C2853   1.490       .  S
C128       C2850   1.493       .  S
N139        C144   1.355       .  A
N139        C143   1.354       .  A
N139        H171   1.034       .  S
N140        C147   1.353       .  A
N140        C148   1.353       .  A
N141        C146   1.353       .  A
N141        C145   1.355       .  A
N141        H172   1.036       .  S
N142        C149   1.357       .  A
N142        C150   1.356       .  A
C143        C151   1.385       .  A
C143        C159   1.417       .  A
C144        C160   1.424       .  A
C144        C152   1.391       .  A
C145        C153   1.382       .  A
C145        C162   1.414       .  A
C146        C161   1.422       .  A
C146        C154   1.392       .  A
C147        C159   1.415       .  A
C147        C155   1.386       .  A
C148        C162   1.418       .  A
C148        C156   1.388       .  A
C149        C157   1.386       .  A
C149        C160   1.423       .  A
C150        C158   1.389       .  A
C150        C161   1.426       .  A
C151        C152   1.375       .  A
C151        H163   1.082       .  S
C152        H164   1.080       .  S
C153        C154   1.365       .  A
C153        H165   1.081       .  S
C154        H166   1.077       .  S
C155        C156   1.369       .  A
C155        H167   1.082       .  S
C156        H168   1.082       .  S
C157        C158   1.376       .  A
C157        H169   1.082       .  S
C158        H170   1.082       .  S
C159       C2910   1.488       .  S
C160       C2866   1.498       .  S
C161       C2841   1.493       .  S
C162       C2845   1.494       .  S
N173        C178   1.353       .  A
N173        C177   1.355       .  A
N173        H205   1.036       .  S
N174        C181   1.355       .  A
N174        C182   1.353       .  A
N175        C180   1.351       .  A
N175        C179   1.350       .  A
N175        H206   1.039       .  S
N176        C183   1.353       .  A
N176        C184   1.354       .  A
C177        C185   1.388       .  A
C177        C193   1.419       .  A
C178        C194   1.416       .  A
C178        C186   1.387       .  A
C179        C187   1.388       .  A
C179        C196   1.410       .  A
C180        C195   1.411       .  A
C180        C188   1.385       .  A
C181        C193   1.416       .  A
C181        C189   1.385       .  A
C182        C196   1.419       .  A
C182        C190   1.388       .  A
C183        C191   1.385       .  A
C183        C194   1.415       .  A
C184        C192   1.388       .  A
C184        C195   1.419       .  A
C185        C186   1.375       .  A
C185        H197   1.081       .  S
C186        H198   1.082       .  S
C187        C188   1.372       .  A
C187        H199   1.078       .  S
C188        H200   1.082       .  S
C189        C190   1.375       .  A
C189        H201   1.082       .  S
C190        H202   1.082       .  S
C191        C192   1.373       .  A
C191        H203   1.082       .  S
C192        H204   1.082       .  S
C193       C2878   1.491       .  S
C194       C2902   1.488       .  S
C195       C2833   1.493       .  S
C196       C2837   1.484       .  S
N207        C212   1.353       .  A
N207        C211   1.355       .  A
N207        H239   1.036       .  S
N208        C215   1.353       .  A
N208        C216   1.351       .  A
N209        C214   1.353       .  A
N209        C213   1.352       .  A
N209        H240   1.040       .  S
N210        C217   1.353       .  A
N210        C218   1.354       .  A
C211        C219   1.386       .  A
C211        C227   1.417       .  A
C212        C228   1.420       .  A
C212        C220   1.389       .  A
C213        C221   1.383       .  A
C213        C230   1.410       .  A
C214        C229   1.415       .  A
C214        C222   1.390       .  A
C215        C227   1.414       .  A
C215        C223   1.385       .  A
C216        C230   1.417       .  A
C216        C224   1.388       .  A
C217        C225   1.386       .  A
C217        C228   1.417       .  A
C218        C226   1.387       .  A
C218        C229   1.417       .  A
C219        C220   1.375       .  A
C219        H231   1.082       .  S
C220        H232   1.082       .  S
C221        C222   1.366       .  A
C221        H233   1.082       .  S
C222        H234   1.077       .  S
C223        C224   1.374       .  A
C223        H235   1.082       .  S
C224        H236   1.082       .  S
C225        C226   1.377       .  A
C225        H237   1.082       .  S
C226        H238   1.082       .  S
C227       C2894   1.490       .  S
C228       C2906   1.489       .  S
C229       C2829   1.491       .  S
C230       C2825   1.489       .  S
N241        C246   1.355       .  A
N241        C245   1.353       .  A
N241        H273   1.036       .  S
N242        C249   1.353       .  A
N242        C250   1.353       .  A
N243        C248   1.352       .  A
N243        C247   1.354       .  A
N243        H274   1.040       .  S
N244        C251   1.356       .  A
N244        C252   1.354       .  A
C245        C253   1.388       .  A
C245        C261   1.417       .  A
C246        C262   1.418       .  A
C246        C254   1.387       .  A
C247        C255   1.387       .  A
C247        C264   1.415       .  A
C248        C263   1.410       .  A
C248        C256   1.385       .  A
C249        C261   1.415       .  A
C249        C257   1.386       .  A
C250        C264   1.416       .  A
C250        C258   1.387       .  A
C251        C259   1.383       .  A
C251        C262   1.416       .  A
C252        C260   1.390       .  A
C252        C263   1.423       .  A
C253        C254   1.375       .  A
C253        H265   1.082   1_545  S
C254        H266   1.082   1_545  S
C255        C256   1.372       .  A
C255        H267   1.082       .  S
C256        H268   1.082       .  S
C257        C258   1.374       .  A
C257        H269   1.082       .  S
C258        H270   1.082       .  S
C259        C260   1.373       .  A
C259        H271   1.083       .  S
C260        H272   1.082       .  S
C261       C2890   1.485       .  S
C262       C2874   1.494       .  S
C263       C2818   1.489       .  S
C264       C2822   1.492       .  S
O275        C291   1.273       .  A
O275       Zn281   2.004       .  S
C276        O292   1.273       .  A
C276        O289   1.272       .  A
C276       C2806   1.467       .  S
O277        C290   1.281       .  A
O277       Cd284   2.129       .  S
O278        C296   1.266       .  A
O278       Cd287   1.995       .  S
O279        C293   1.272       .  A
O279       Cd283   2.052       .  S
O280        C291   1.272       .  A
O280       Cd283   2.057       .  S
Zn281       O292   2.008       .  S
Zn281       O294   1.939       .  S
Zn281       O286   1.909       .  S
O282        C293   1.272       .  A
O282       Cd287   2.061       .  S
Cd283       O285   1.985       .  S
Cd283       O286   1.957       .  S
Cd284       O288   2.124       .  S
Cd284       O297   2.124       .  S
Cd284       O286   2.044       .  S
O285        C295   1.265       .  A
O286       Cd287   1.961       .  S
Cd287       O289   2.040       .  S
O288        C295   1.280       .  A
C290        O294   1.266       .  A
C290       C2794   1.481       .  S
C291       C2813   1.470       .  S
C293       C2802   1.474       .  S
C295       C2797   1.477       .  S
C296        O297   1.281       .  A
C296       C2810   1.475       .  S
O298        C314   1.276       .  A
O298       Zn304   2.020       .  S
C299        O315   1.275       .  A
C299        O312   1.269       .  A
C299       C2770   1.470       .  S
O300        C313   1.281       .  A
O300       Cd307   2.135       .  S
O301        C319   1.262       .  A
O301       Cd310   1.972       .  S
O302        C316   1.274       .  A
O302       Cd306   2.087       .  S
O303        C314   1.274       .  A
O303       Cd306   2.067       .  S
Zn304       O315   2.027       .  S
Zn304       O317   1.944       .  S
Zn304       O309   1.911       .  S
O305        C316   1.268       .  A
O305       Cd310   2.034       .  S
Cd306       O308   2.028       .  S
Cd306       O309   1.983       .  S
Cd307       O311   2.119       .  S
Cd307       O320   2.143       .  S
Cd307       O309   2.041       .  S
O308        C318   1.272       .  A
O309       Cd310   1.957       .  S
Cd310       O312   2.038       .  S
O311        C318   1.282       .  A
C313        O317   1.266       .  A
C313       C2785   1.488       .  S
C314       C2773   1.473       .  S
C316       C2789   1.471       .  S
C318       C2777   1.482       .  S
C319        O320   1.283       .  A
C319       C2782   1.479       .  S
O321        C337   1.275       .  A
O321       Zn327   2.030       .  S
C322        O338   1.274       .  A
C322        O335   1.273       .  A
C322       C2758   1.464       .  S
O323        C336   1.281       .  A
O323       Cd330   2.132       .  S
O324        C342   1.269       .  A
O324       Cd333   2.021       .  S
O325        C339   1.273       .  A
O325       Cd329   2.068       .  S
O326        C337   1.270       .  A
O326       Cd329   2.043       .  S
Zn327       O338   2.000       .  S
Zn327       O340   1.929       .  S
Zn327       O332   1.911       .  S
O328        C339   1.271       .  A
O328       Cd333   2.050       .  S
Cd329       O331   2.000       .  S
Cd329       O332   1.975       .  S
Cd330       O334   2.131       .  S
Cd330       O343   2.128       .  S
Cd330       O332   2.035       .  S
O331        C341   1.266       .  A
O332       Cd333   1.968       .  S
Cd333       O335   2.060       .  S
O334        C341   1.283       .  A
C336        O340   1.264       .  A
C336       C2761   1.478       .  S
C337       C2830   1.472       .  S
C339       C2753   1.469       .  S
C341       C2765   1.480       .  S
C342        O343   1.282       .  A
C342       C2750   1.485       .  S
O344        C360   1.275       .  A
O344       Zn350   2.027       .  S
C345        O361   1.274       .  A
C345        O358   1.276       .  A
C345       C2729   1.476       .  S
O346        C359   1.280       .  A
O346       Cd353   2.120       .  S
O347        C365   1.267       .  A
O347       Cd356   2.007       .  S
O348        C362   1.268       .  A
O348       Cd352   2.036       .  S
O349        C360   1.266       .  A
O349       Cd352   2.031   1_556  S
Zn350       O361   2.012   1_556  S
Zn350       O363   1.935       .  S
Zn350       O355   1.916   1_556  S
O351        C362   1.274       .  A
O351       Cd356   2.070       .  S
Cd352       O354   1.998   1_554  S
Cd352       O355   1.965       .  S
Cd353       O357   2.123       .  S
Cd353       O366   2.127   1_556  S
Cd353       O355   2.041   1_556  S
O354        C364   1.267       .  A
O355       Cd356   1.964       .  S
Cd356       O358   2.067       .  S
O357        C364   1.281       .  A
C359        O363   1.265       .  A
C359       C2862   1.477       .  S
C360       C2733   1.468       .  S
C362       C2741   1.461       .  S
C364       C2738   1.480       .  S
C365        O366   1.281       .  A
C365       C2745   1.483       .  S
O367        C383   1.274       .  A
O367       Zn373   2.006       .  S
C368        O384   1.274       .  A
C368        O381   1.274       .  A
C368       C2838   1.474       .  S
O369        C382   1.281       .  A
O369       Cd376   2.129   1_556  S
O370        C388   1.266       .  A
O370       Cd379   2.014       .  S
O371        C385   1.273       .  A
O371       Cd375   2.058       .  S
O372        C383   1.274       .  A
O372       Cd375   2.068   1_456  S
Zn373       O384   2.018   1_455  S
Zn373       O386   1.951       .  S
Zn373       O378   1.922   1_456  S
O374        C385   1.272       .  A
O374       Cd379   2.066       .  S
Cd375       O377   1.996   1_655  S
Cd375       O378   1.972       .  S
Cd376       O380   2.143       .  S
Cd376       O389   2.120   1_455  S
Cd376       O378   2.036   1_455  S
O377        C387   1.265       .  A
O378       Cd379   1.976       .  S
Cd379       O381   2.044   1_554  S
O380        C387   1.284       .  A
C382        O386   1.266       .  A
C382       C2713   1.485       .  S
C383       C2722   1.477       .  S
C385       C2725   1.475       .  S
C387       C2709   1.486       .  S
C388        O389   1.281       .  A
C388       C2718   1.466       .  S
O390        C406   1.272       .  A
O390       Zn396   2.007   1_545  S
C391        O407   1.274       .  A
C391        O404   1.269       .  A
C391       C2693   1.466       .  S
O392        C405   1.281       .  A
O392       Cd399   2.132       .  S
O393        C411   1.264       .  A
O393       Cd402   1.988       .  S
O394        C408   1.275       .  A
O394       Cd398   2.089       .  S
O395        C406   1.275       .  A
O395       Cd398   2.065       .  S
Zn396       O407   2.014       .  S
Zn396       O409   1.940       .  S
Zn396       O401   1.913   1_565  S
O397        C408   1.269       .  A
O397       Cd402   2.028   1_545  S
Cd398       O400   2.007       .  S
Cd398       O401   1.980       .  S
Cd399       O403   2.114   1_565  S
Cd399       O412   2.129       .  S
Cd399       O401   2.045   1_565  S
O400        C410   1.268       .  A
O401       Cd402   1.959   1_545  S
Cd402       O404   2.037       .  S
O403        C410   1.280       .  A
C405        O409   1.266       .  A
C405       C2858   1.485       .  S
C406       C2690   1.473       .  S
C408       C2698   1.471       .  S
C410       C2705   1.475       .  S
C411        O412   1.281       .  A
C411       C2702   1.481       .  S
O413        C429   1.275       .  A
O413       Zn419   2.028       .  S
C414        O430   1.275       .  A
C414        O427   1.271       .  A
C414       C2678   1.470       .  S
O415        C428   1.276       .  A
O415       Cd422   2.091       .  S
O416        C434   1.268       .  A
O416       Cd425   2.017       .  S
O417        C431   1.271       .  A
O417       Cd421   2.046       .  S
O418        C429   1.273       .  A
O418       Cd421   2.049       .  S
Zn419       O430   2.021       .  S
Zn419       O432   1.954       .  S
Zn419       O424   1.920       .  S
O420        C431   1.271       .  A
O420       Cd425   2.058       .  S
Cd421       O423   1.991       .  S
Cd421       O424   1.953       .  S
Cd422       O426   2.125       .  S
Cd422       O435   2.107       .  S
Cd422       O424   2.031       .  S
O423        C433   1.264       .  A
O424       Cd425   1.977       .  S
Cd425       O427   2.048       .  S
O426        C433   1.280       .  A
C428        O432   1.268       .  A
C428       C2673   1.464       .  S
C429       C2681   1.471       .  S
C431       C2685   1.462       .  S
C433       C2669   1.479       .  S
C434        O435   1.279       .  A
C434       C2846   1.471       .  S
O436        C452   1.274       .  A
O436       Zn442   2.016       .  S
C437        O453   1.275       .  A
C437        O450   1.275       .  A
C437       C2653   1.478       .  S
O438        C451   1.278       .  A
O438       Cd445   2.121       .  S
O439        C457   1.265       .  A
O439       Cd448   1.994       .  S
O440        C454   1.271       .  A
O440       Cd444   2.063   1_655  S
O441        C452   1.272       .  A
O441       Cd444   2.058       .  S
Zn442       O453   2.027   1_455  S
Zn442       O455   1.934       .  S
Zn442       O447   1.912   1_455  S
O443        C454   1.273       .  A
O443       Cd448   2.062       .  S
Cd444       O446   2.020       .  S
Cd444       O447   1.985   1_455  S
Cd445       O449   2.113       .  S
Cd445       O458   2.117   1_455  S
Cd445       O447   2.042   1_455  S
O446        C456   1.269       .  A
O447       Cd448   1.969       .  S
Cd448       O450   2.063       .  S
O449        C456   1.281       .  A
C451        O455   1.265       .  A
C451       C2665   1.480       .  S
C452       C2662   1.468       .  S
C454       C2854   1.469       .  S
C456       C2649   1.474       .  S
C457        O458   1.280       .  A
C457       C2657   1.471       .  S
O459        C475   1.272       .  A
O459       Zn465   1.997   1_546  S
C460        O476   1.272       .  A
C460        O473   1.274       .  A
C460       C2637   1.470       .  S
O461        C474   1.277       .  A
O461       Cd468   2.112       .  S
O462        C480   1.269       .  A
O462       Cd471   2.018       .  S
O463        C477   1.274       .  A
O463       Cd467   2.069       .  S
O464        C475   1.273       .  A
O464       Cd467   2.073   1_556  S
Zn465       O476   1.993       .  S
Zn465       O478   1.921   1_554  S
Zn465       O470   1.904   1_565  S
O466        C477   1.275       .  A
O466       Cd471   2.074   1_545  S
Cd467       O469   2.027   1_554  S
Cd467       O470   1.985       .  S
Cd468       O472   2.106   1_565  S
Cd468       O481   2.117   1_556  S
Cd468       O470   2.033   1_566  S
O469        C479   1.270       .  A
O470       Cd471   1.973   1_545  S
Cd471       O473   2.075       .  S
O472        C479   1.280       .  A
C474        O478   1.262       .  A
C474       C2826   1.474       .  S
C475       C2634   1.469       .  S
C477       C2630   1.473       .  S
C479       C2646   1.467       .  S
C480        O481   1.280       .  A
C480       C2641   1.480       .  S
C482       C2625   1.481       .  S
C482        N483   1.362       .  A
C482        N487   1.360       .  A
N483        C484   1.360       .  A
C484       C2617   1.482       .  S
C484        N485   1.360       .  A
N485        C486   1.359       .  A
C486       C2621   1.481       .  S
C486        N487   1.360       .  A
N488        C493   1.355       .  A
N488        C492   1.354       .  A
N488        H520   1.035       .  S
N489        C496   1.354       .  A
N489        C497   1.353       .  A
N490        C495   1.355       .  A
N490        C494   1.352       .  A
N490        H521   1.036       .  S
N491        C498   1.353       .  A
N491        C499   1.353       .  A
C492        C500   1.386       .  A
C492        C508   1.416       .  A
C493        C509   1.421       .  A
C493        C501   1.389       .  A
C494        C502   1.384       .  A
C494        C511   1.414       .  A
C495        C510   1.418       .  A
C495        C503   1.390       .  A
C496        C508   1.416       .  A
C496        C504   1.385       .  A
C497        C511   1.418       .  A
C497        C505   1.387       .  A
C498        C506   1.385       .  A
C498        C509   1.416       .  A
C499        C507   1.389       .  A
C499        C510   1.421       .  A
C500        C501   1.375       .  A
C500        H512   1.082       .  S
C501        H513   1.082       .  S
C502        C503   1.367       .  A
C502        H514   1.082       .  S
C503        H515   1.077       .  S
C504        C505   1.376       .  A
C504        H516   1.082       .  S
C505        H517   1.082       .  S
C506        C507   1.376       .  A
C506        H518   1.082       .  S
C507        H519   1.082       .  S
C508       C2613   1.491       .  S
C509       C2622   1.490       .  S
C510       C2801   1.491       .  S
C511       C2946   1.491       .  S
C522       C2601   1.482       .  S
C522        N523   1.361       .  A
C522        N527   1.358       .  A
N523        C524   1.360       .  A
C524       C2609   1.483   1_565  S
C524        N525   1.363       .  A
N525        C526   1.362       .  A
C526       C2605   1.484       .  S
C526        N527   1.360       .  A
N528        C533   1.353       .  A
N528        C532   1.354       .  A
N528        H560   1.033       .  S
N529        C536   1.356       .  A
N529        C537   1.355       .  A
N530        C535   1.353       .  A
N530        C534   1.355       .  A
N530        H561   1.034       .  S
N531        C538   1.355       .  A
N531        C539   1.353       .  A
C532        C540   1.390       .  A
C532        C548   1.421       .  A
C533        C549   1.417       .  A
C533        C541   1.385       .  A
C534        C542   1.390       .  A
C534        C551   1.422       .  A
C535        C550   1.415       .  A
C535        C543   1.384       .  A
C536        C548   1.419       .  A
C536        C544   1.384       .  A
C537        C551   1.426       .  A
C537        C545   1.390       .  A
C538        C546   1.385       .  A
C538        C549   1.414       .  A
C539        C547   1.390       .  A
C539        C550   1.419       .  A
C540        C541   1.374       .  A
C540        H552   1.081       .  S
C541        H553   1.082       .  S
C542        C543   1.366       .  A
C542        H554   1.078       .  S
C543        H555   1.081       .  S
C544        C545   1.373       .  A
C544        H556   1.082       .  S
C545        H557   1.081       .  S
C546        C547   1.369       .  A
C546        H558   1.082       .  S
C547        H559   1.082       .  S
C548       C2602   1.493       .  S
C549       C2597   1.492       .  S
C550       C2674   1.489       .  S
C551       C2594   1.494       .  S
N562        C567   1.354       .  A
N562        C566   1.353       .  A
N562        H594   1.038       .  S
N563        C570   1.355       .  A
N563        C571   1.353       .  A
N564        C569   1.352       .  A
N564        C568   1.353       .  A
N564        H595   1.040       .  S
N565        C572   1.356       .  A
N565        C573   1.353       .  A
C566        C574   1.387       .  A
C566        C582   1.414       .  A
C567        C583   1.415       .  A
C567        C575   1.387       .  A
C568        C576   1.387       .  A
C568        C585   1.413       .  A
C569        C584   1.410       .  A
C569        C577   1.386       .  A
C570        C582   1.413       .  A
C570        C578   1.384       .  A
C571        C585   1.419       .  A
C571        C579   1.389       .  A
C572        C580   1.384       .  A
C572        C583   1.413       .  A
C573        C581   1.389       .  A
C573        C584   1.419       .  A
C574        C575   1.376       .  A
C574        H586   1.082       .  S
C575        H587   1.082       .  S
C576        C577   1.376       .  A
C576        H588   1.082       .  S
C577        H589   1.082       .  S
C578        C579   1.373       .  A
C578        H590   1.082       .  S
C579        H591   1.082       .  S
C580        C581   1.372       .  A
C580        H592   1.082       .  S
C581        H593   1.082       .  S
C582       C2626   1.487       .  S
C583       C2606   1.492       .  S
C584       C2642   1.486       .  S
C585       C2746   1.489       .  S
C596       C2589   1.484       .  S
C596        N597   1.357       .  A
C596        N601   1.355       .  A
N597        C598   1.360       .  A
C598       C2581   1.486       .  S
C598        N599   1.369       .  A
N599        C600   1.369       .  A
C600       C2585   1.487   1_565  S
C600        N601   1.360       .  A
C602       C2577   1.474       .  S
C602        N603   1.352       .  A
C602        N607   1.360       .  A
N603        C604   1.353       .  A
C604       C2598   1.474       .  S
C604        N605   1.362       .  A
N605        C606   1.366       .  A
C606       C2614   1.485       .  S
C606        N607   1.363       .  A
N608        C613   1.354       .  A
N608        C612   1.357       .  A
N608        H640   1.038       .  S
N609        C616   1.355       .  A
N609        C617   1.353       .  A
N610        C615   1.350       .  A
N610        C614   1.351       .  A
N610        H641   1.042       .  S
N611        C618   1.352       .  A
N611        C619   1.353       .  A
C612        C620   1.388       .  A
C612        C628   1.421       .  A
C613        C629   1.419       .  A
C613        C621   1.387       .  A
C614        C622   1.390       .  A
C614        C631   1.411       .  A
C615        C630   1.403       .  A
C615        C623   1.383       .  A
C616        C628   1.416       .  A
C616        C624   1.385       .  A
C617        C631   1.420       .  A
C617        C625   1.389       .  A
C618        C626   1.386       .  A
C618        C629   1.413       .  A
C619        C627   1.386       .  A
C619        C630   1.412       .  A
C620        C621   1.374       .  A
C620        H632   1.081       .  S
C621        H633   1.082       .  S
C622        C623   1.371       .  A
C622        H634   1.081       .  S
C623        H635   1.082       .  S
C624        C625   1.377       .  A
C624        H636   1.082       .  S
C625        H637   1.082       .  S
C626        C627   1.375       .  A
C626        H638   1.082       .  S
C627        H639   1.082       .  S
C628       C2582   1.501       .  S
C629       C2578   1.490       .  S
C630       C2754   1.486       .  S
C631       C2701   1.490       .  S
N642        C647   1.354       .  A
N642        C646   1.354       .  A
N642        H674   1.038       .  S
N643        C650   1.358       .  A
N643        C651   1.355       .  A
N644        C649   1.354       .  A
N644        C648   1.354       .  A
N644        H675   1.041       .  S
N645        C652   1.356       .  A
N645        C653   1.355       .  A
C646        C654   1.387       .  A
C646        C662   1.416       .  A
C647        C663   1.417       .  A
C647        C655   1.388       .  A
C648        C656   1.388       .  A
C648        C665   1.417       .  A
C649        C664   1.412       .  A
C649        C657   1.385       .  A
C650        C662   1.418       .  A
C650        C658   1.384       .  A
C651        C665   1.424       .  A
C651        C659   1.390       .  A
C652        C660   1.384       .  A
C652        C663   1.415       .  A
C653        C661   1.390       .  A
C653        C664   1.421       .  A
C654        C655   1.375       .  A
C654        H666   1.082   1_545  S
C655        H667   1.082       .  S
C656        C657   1.375       .  A
C656        H668   1.081       .  S
C657        H669   1.082       .  S
C658        C659   1.374       .  A
C658        H670   1.082       .  S
C659        H671   1.083       .  S
C660        C661   1.372       .  A
C660        H672   1.082       .  S
C661        H673   1.082       .  S
C662       C2586   1.498       .  S
C663       C2610   1.495       .  S
C664       C2934   1.493       .  S
C665       C2786   1.494       .  S
N676        C681   1.356       .  A
N676        C680   1.356       .  A
N676        H708   1.036       .  S
N677        C684   1.354       .  A
N677        C685   1.354       .  A
N678        C683   1.352       .  A
N678        C682   1.352       .  A
N678        H709   1.040       .  S
N679        C686   1.353       .  A
N679        C687   1.354       .  A
C680        C688   1.389       .  A
C680        C696   1.421       .  A
C681        C697   1.419       .  A
C681        C689   1.386       .  A
C682        C690   1.386       .  A
C682        C699   1.410       .  A
C683        C698   1.411       .  A
C683        C691   1.387       .  A
C684        C696   1.420       .  A
C684        C692   1.387       .  A
C685        C699   1.417       .  A
C685        C693   1.386       .  A
C686        C694   1.386       .  A
C686        C697   1.416       .  A
C687        C695   1.386       .  A
C687        C698   1.416       .  A
C688        C689   1.376       .  A
C688        H700   1.082       .  S
C689        H701   1.082       .  S
C690        C691   1.369       .  A
C690        H702   1.082       .  S
C691        H703   1.082       .  S
C692        C693   1.375       .  A
C692        H704   1.082       .  S
C693        H705   1.082       .  S
C694        C695   1.375       .  A
C694        H706   1.082       .  S
C695        H707   1.082       .  S
C696       C2590   1.494       .  S
C697       C2618   1.491       .  S
C698       C2661   1.492       .  S
C699       C2573   1.491       .  S
O710        C726   1.270       .  A
O710       Zn716   1.994   1_545  S
C711        O727   1.270       .  A
C711        O724   1.270       .  A
C711       C2565   1.458       .  S
O712        C725   1.278       .  A
O712       Cd719   2.100       .  S
O713        C731   1.268       .  A
O713       Cd722   2.011       .  S
O714        C728   1.275       .  A
O714       Cd718   2.067       .  S
O715        C726   1.274       .  A
O715       Cd718   2.066       .  S
Zn716       O727   2.006       .  S
Zn716       O729   1.952       .  S
Zn716       O721   1.930   1_565  S
O717        C728   1.272       .  A
O717       Cd722   2.062   1_545  S
Cd718       O720   1.999       .  S
Cd718       O721   1.966       .  S
Cd719       O723   2.119   1_565  S
Cd719       O732   2.123       .  S
Cd719       O721   2.033   1_565  S
O720        C730   1.265       .  A
O721       Cd722   1.969   1_545  S
Cd722       O724   2.035       .  S
O723        C730   1.280       .  A
C725        O729   1.265       .  A
C725       C2593   1.460       .  S
C726       C2561   1.464       .  S
C728       C2557   1.467       .  S
C730       C2569   1.473       .  S
C731        O732   1.280       .  A
C731       C2849   1.481       .  S
O733        C749   1.276       .  A
O733       Zn739   2.035   1_556  S
C734        O750   1.274       .  A
C734        O747   1.274       .  A
C734       C2553   1.468       .  S
O735        C748   1.278       .  A
O735       Cd742   2.109       .  S
O736        C754   1.267       .  A
O736       Cd745   2.011       .  S
O737        C751   1.270       .  A
O737       Cd741   2.048       .  S
O738        C749   1.271       .  A
O738       Cd741   2.063       .  S
Zn739       O750   2.022       .  S
Zn739       O752   1.950       .  S
Zn739       O744   1.918   1_554  S
O740        C751   1.275       .  A
O740       Cd745   2.068   1_556  S
Cd741       O743   2.013       .  S
Cd741       O744   1.969       .  S
Cd742       O746   2.106   1_554  S
Cd742       O755   2.118       .  S
Cd742       O744   2.038   1_554  S
O743        C753   1.270       .  A
O744       Cd745   1.962   1_556  S
Cd745       O747   2.053       .  S
O746        C753   1.280       .  A
C748        O752   1.268       .  A
C748       C2537   1.472       .  S
C749       C2821   1.474       .  S
C751       C2549   1.463       .  S
C753       C2542   1.474       .  S
C754        O755   1.279       .  A
C754       C2545   1.478       .  S
C756       C2525   1.479       .  S
C756        N757   1.363       .  A
C756        N761   1.357       .  A
N757        C758   1.361       .  A
C758       C2533   1.485       .  S
C758        N759   1.361       .  A
N759        C760   1.358       .  A
C760       C2529   1.478       .  S
C760        N761   1.358       .  A
C762       C2513   1.480       .  S
C762        N763   1.363       .  A
C762        N767   1.358       .  A
N763        C764   1.362       .  A
C764       C2522   1.483       .  S
C764        N765   1.361       .  A
N765        C766   1.357       .  A
C766       C2518   1.480   1_556  S
C766        N767   1.358       .  A
C768       C2509   1.483       .  S
C768        N769   1.361       .  A
C768        N773   1.359       .  A
N769        C770   1.359       .  A
C770       C2501   1.483       .  S
C770        N771   1.362       .  A
N771        C772   1.361       .  A
C772       C2505   1.483       .  S
C772        N773   1.361       .  A
C774       C2493   1.477       .  S
C774        N775   1.359       .  A
C774        N779   1.364       .  A
N775        C776   1.359       .  A
C776       C2489   1.478       .  S
C776        N777   1.356       .  A
N777        C778   1.358       .  A
C778       C2497   1.481   1_556  S
C778        N779   1.363       .  A
N780        C785   1.354       .  A
N780        C784   1.355       .  A
N780        H812   1.036       .  S
N781        C788   1.354       .  A
N781        C789   1.353       .  A
N782        C787   1.351       .  A
N782        C786   1.349       .  A
N782        H813   1.040       .  S
N783        C790   1.353       .  A
N783        C791   1.353       .  A
C784        C792   1.388       .  A
C784        C800   1.418       .  A
C785        C801   1.417       .  A
C785        C793   1.387       .  A
C786        C794   1.387       .  A
C786        C803   1.407       .  A
C787        C802   1.407       .  A
C787        C795   1.386       .  A
C788        C800   1.415       .  A
C788        C796   1.385       .  A
C789        C803   1.416       .  A
C789        C797   1.387       .  A
C790        C798   1.385       .  A
C790        C801   1.415       .  A
C791        C799   1.388       .  A
C791        C802   1.417       .  A
C792        C793   1.375       .  A
C792        H804   1.082       .  S
C793        H805   1.082       .  S
C794        C795   1.373       .  A
C794        H806   1.082       .  S
C795        H807   1.082       .  S
C796        C797   1.376       .  A
C796        H808   1.082       .  S
C797        H809   1.082       .  S
C798        C799   1.373       .  A
C798        H810   1.082       .  S
C799        H811   1.082       .  S
C800       C2506   1.489       .  S
C801       C2490   1.490       .  S
C802       C2737   1.485       .  S
C803       C2757   1.483       .  S
N814        C819   1.356       .  A
N814        C818   1.353       .  A
N814        H846   1.034       .  S
N815        C822   1.355       .  A
N815        C823   1.354       .  A
N816        C821   1.352       .  A
N816        C820   1.352       .  A
N816        H847   1.039       .  S
N817        C824   1.354       .  A
N817        C825   1.353       .  A
C818        C826   1.389       .  A
C818        C834   1.421       .  A
C819        C835   1.419       .  A
C819        C827   1.386       .  A
C820        C828   1.388       .  A
C820        C837   1.412       .  A
C821        C836   1.408       .  A
C821        C829   1.384       .  A
C822        C834   1.419       .  A
C822        C830   1.386       .  A
C823        C837   1.419       .  A
C823        C831   1.387       .  A
C824        C832   1.384       .  A
C824        C835   1.414       .  A
C825        C833   1.389       .  A
C825        C836   1.419       .  A
C826        C827   1.375       .  A
C826        H838   1.081       .  S
C827        H839   1.082       .  S
C828        C829   1.371       .  A
C828        H840   1.082       .  S
C829        H841   1.082       .  S
C830        C831   1.376       .  A
C830        H842   1.082       .  S
C831        H843   1.082       .  S
C832        C833   1.371       .  A
C832        H844   1.082       .  S
C833        H845   1.082       .  S
C834       C2514   1.491       .  S
C835       C2502   1.493       .  S
C836       C2485   1.487       .  S
C837       C2550   1.489       .  S
N848        C853   1.354       .  A
N848        C852   1.352       .  A
N848        H880   1.035       .  S
N849        C856   1.355       .  A
N849        C857   1.353       .  A
N850        C855   1.354       .  A
N850        C854   1.352       .  A
N850        H881   1.040       .  S
N851        C858   1.354       .  A
N851        C859   1.353       .  A
C852        C860   1.387       .  A
C852        C868   1.415       .  A
C853        C869   1.418       .  A
C853        C861   1.389       .  A
C854        C862   1.386       .  A
C854        C871   1.413       .  A
C855        C870   1.414       .  A
C855        C863   1.386       .  A
C856        C868   1.416       .  A
C856        C864   1.385       .  A
C857        C871   1.418       .  A
C857        C865   1.388       .  A
C858        C866   1.385       .  A
C858        C869   1.415       .  A
C859        C867   1.388       .  A
C859        C870   1.418       .  A
C860        C861   1.374       .  A
C860        H872   1.082       .  S
C861        H873   1.081       .  S
C862        C863   1.374       .  A
C862        H874   1.082       .  S
C863        H875   1.082       .  S
C864        C865   1.375       .  A
C864        H876   1.082       .  S
C865        H877   1.082       .  S
C866        C867   1.372       .  A
C866        H878   1.082       .  S
C867        H879   1.082       .  S
C868       C2510   1.488       .  S
C869       C2530   1.488       .  S
C870       C2778   1.492       .  S
C871       C2950   1.490       .  S
N882        C887   1.354       .  A
N882        C886   1.355       .  A
N882        H914   1.035       .  S
N883        C890   1.354       .  A
N883        C891   1.353       .  A
N884        C889   1.353       .  A
N884        C888   1.353       .  A
N884        H915   1.036       .  S
N885        C892   1.355       .  A
N885        C893   1.354       .  A
C886        C894   1.387       .  A
C886        C902   1.416       .  A
C887        C903   1.419       .  A
C887        C895   1.388       .  A
C888        C896   1.384       .  A
C888        C905   1.413       .  A
C889        C904   1.419       .  A
C889        C897   1.390       .  A
C890        C902   1.415       .  A
C890        C898   1.385       .  A
C891        C905   1.420       .  A
C891        C899   1.389       .  A
C892        C900   1.385       .  A
C892        C903   1.417       .  A
C893        C901   1.389       .  A
C893        C904   1.421       .  A
C894        C895   1.376       .  A
C894        H906   1.082   1_554  S
C895        H907   1.082   1_554  S
C896        C897   1.366       .  A
C896        H908   1.082       .  S
C897        H909   1.079       .  S
C898        C899   1.370       .  A
C898        H910   1.082       .  S
C899        H911   1.082       .  S
C900        C901   1.374       .  A
C900        H912   1.082       .  S
C901        H913   1.082       .  S
C902       C2517   1.488       .  S
C903       C2498   1.491       .  S
C904       C2814   1.489       .  S
C905       C2929   1.491       .  S
N916        C921   1.353       .  A
N916        C920   1.353       .  A
N916        H948   1.033       .  S
N917        C924   1.354       .  A
N917        C925   1.351       .  A
N918        C923   1.353       .  A
N918        C922   1.354       .  A
N918        H949   1.037       .  S
N919        C926   1.356       .  A
N919        C927   1.355       .  A
C920        C928   1.387       .  A
C920        C936   1.417       .  A
C921        C937   1.419       .  A
C921        C929   1.389       .  A
C922        C930   1.384       .  A
C922        C939   1.415       .  A
C923        C938   1.418       .  A
C923        C931   1.389       .  A
C924        C936   1.414       .  A
C924        C932   1.385       .  A
C925        C939   1.418       .  A
C925        C933   1.389       .  A
C926        C934   1.385       .  A
C926        C937   1.419       .  A
C927        C935   1.390       .  A
C927        C938   1.424       .  A
C928        C929   1.373       .  A
C928        H940   1.081       .  S
C929        H941   1.081       .  S
C930        C931   1.371       .  A
C930        H942   1.081       .  S
C931        H943   1.076       .  S
C932        C933   1.373       .  A
C932        H944   1.082       .  S
C933        H945   1.082       .  S
C934        C935   1.373       .  A
C934        H946   1.082       .  S
C935        H947   1.082       .  S
C936       C2526   1.488       .  S
C937       C2521   1.491       .  S
C938       C2645   1.491       .  S
C939       C2706   1.488       .  S
N950        C955   1.353       .  A
N950        C954   1.355       .  A
N950        H982   1.037       .  S
N951        C958   1.354       .  A
N951        C959   1.353       .  A
N952        C957   1.352       .  A
N952        C956   1.352       .  A
N952        H983   1.040       .  S
N953        C960   1.354       .  A
N953        C961   1.354       .  A
C954        C962   1.386       .  A
C954        C970   1.414       .  A
C955        C971   1.419       .  A
C955        C963   1.388       .  A
C956        C964   1.385       .  A
C956        C973   1.412       .  A
C957        C972   1.411       .  A
C957        C965   1.387       .  A
C958        C970   1.413       .  A
C958        C966   1.385       .  A
C959        C973   1.418       .  A
C959        C967   1.389       .  A
C960        C968   1.386       .  A
C960        C971   1.417       .  A
C961        C969   1.387       .  A
C961        C972   1.417       .  A
C962        C963   1.376       .  A
C962        H974   1.082       .  S
C963        H975   1.082       .  S
C964        C965   1.371       .  A
C964        H976   1.081       .  S
C965        H977   1.079       .  S
C966        C967   1.373       .  A
C966        H978   1.082       .  S
C967        H979   1.082       .  S
C968        C969   1.376       .  A
C968        H980   1.082       .  S
C969        H981   1.082       .  S
C970       C2534   1.489       .  S
C971       C2494   1.492       .  S
C972       C2721   1.488       .  S
C973       C2481   1.491       .  S
C984       C2477   1.487       .  S
C984        N985   1.363       .  A
C984        N989   1.364       .  A
N985        C986   1.360       .  A
C986       C2473   1.482       .  S
C986        N987   1.358       .  A
N987        C988   1.359       .  A
C988       C2469   1.486       .  S
C988        N989   1.364       .  A
N990        C995   1.356       .  A
N990        C994   1.355       .  A
N990       H1022   1.037       .  S
N991        C998   1.355       .  A
N991        C999   1.354       .  A
N992        C997   1.353       .  A
N992        C996   1.352       .  A
N992       H1023   1.040       .  S
N993       C1000   1.357       .  A
N993       C1001   1.355       .  A
C994       C1002   1.387       .  A
C994       C1010   1.419       .  A
C995       C1011   1.420       .  A
C995       C1003   1.388       .  A
C996       C1004   1.387       .  A
C996       C1013   1.411       .  A
C997       C1012   1.412       .  A
C997       C1005   1.387       .  A
C998       C1010   1.417       .  A
C998       C1006   1.386       .  A
C999       C1013   1.418       .  A
C999       C1007   1.387       .  A
C1000      C1008   1.385       .  A
C1000      C1011   1.419       .  A
C1001      C1009   1.389       .  A
C1001      C1012   1.422       .  A
C1002      C1003   1.376       .  A
C1002      H1014   1.082       .  S
C1003      H1015   1.081       .  S
C1004      C1005   1.373       .  A
C1004      H1016   1.082       .  S
C1005      H1017   1.082       .  S
C1006      C1007   1.376       .  A
C1006      H1018   1.082       .  S
C1007      H1019   1.082       .  S
C1008      C1009   1.375       .  A
C1008      H1020   1.082       .  S
C1009      H1021   1.082       .  S
C1010      C2470   1.494       .  S
C1011      C2465   1.498       .  S
C1012      C2954   1.494       .  S
C1013      C2682   1.488       .  S
C1024      C2457   1.484       .  S
C1024      N1025   1.356       .  A
C1024      N1029   1.362       .  A
N1025      C1026   1.357       .  A
C1026      C2461   1.486   1_554  S
C1026      N1027   1.366       .  A
N1027      C1028   1.367       .  A
C1028      C2453   1.490       .  S
C1028      N1029   1.364       .  A
C1030      C2442   1.479       .  S
C1030      N1031   1.365       .  A
C1030      N1035   1.355       .  A
N1031      C1032   1.366       .  A
C1032      C2450   1.482   1_554  S
C1032      N1033   1.360       .  A
N1033      C1034   1.358       .  A
C1034      C2445   1.475       .  S
C1034      N1035   1.353       .  A
C1036      C2438   1.482       .  S
C1036      N1037   1.363       .  A
C1036      N1041   1.356       .  A
N1037      C1038   1.363       .  A
C1038      C2466   1.488       .  S
C1038      N1039   1.363       .  A
N1039      C1040   1.361       .  A
C1040      C2433   1.482       .  S
C1040      N1041   1.358       .  A
N1042      C1047   1.353       .  A
N1042      C1046   1.355       .  A
N1042      H1074   1.036       .  S
N1043      C1050   1.352       .  A
N1043      C1051   1.351       .  A
N1044      C1049   1.348       .  A
N1044      C1048   1.350       .  A
N1044      H1075   1.039       .  S
N1045      C1052   1.354       .  A
N1045      C1053   1.354       .  A
C1046      C1054   1.387       .  A
C1046      C1062   1.416       .  A
C1047      C1063   1.416       .  A
C1047      C1055   1.387       .  A
C1048      C1056   1.386       .  A
C1048      C1065   1.405       .  A
C1049      C1064   1.409       .  A
C1049      C1057   1.388       .  A
C1050      C1062   1.411       .  A
C1050      C1058   1.385       .  A
C1051      C1065   1.416       .  A
C1051      C1059   1.389       .  A
C1052      C1060   1.386       .  A
C1052      C1063   1.419       .  A
C1053      C1061   1.387       .  A
C1053      C1064   1.418       .  A
C1054      C1055   1.375       .  A
C1054      H1066   1.082       .  S
C1055      H1067   1.082       .  S
C1056      C1057   1.371       .  A
C1056      H1068   1.082       .  S
C1057      H1069   1.082       .  S
C1058      C1059   1.373       .  A
C1058      H1070   1.082       .  S
C1059      H1071   1.082       .  S
C1060      C1061   1.376       .  A
C1060      H1072   1.082       .  S
C1061      H1073   1.082       .  S
C1062      C2434   1.486       .  S
C1063      C2441   1.492       .  S
C1064      C2742   1.487       .  S
C1065      C2798   1.479       .  S
N1076      C1081   1.353       .  A
N1076      C1080   1.357       .  A
N1076      H1108   1.036       .  S
N1077      C1084   1.356       .  A
N1077      C1085   1.355       .  A
N1078      C1083   1.354       .  A
N1078      C1082   1.352       .  A
N1078      H1109   1.040       .  S
N1079      C1086   1.355       .  A
N1079      C1087   1.355       .  A
C1080      C1088   1.387       .  A
C1080      C1096   1.420       .  A
C1081      C1097   1.419       .  A
C1081      C1089   1.388       .  A
C1082      C1090   1.386       .  A
C1082      C1099   1.412       .  A
C1083      C1098   1.414       .  A
C1083      C1091   1.387       .  A
C1084      C1096   1.416       .  A
C1084      C1092   1.383       .  A
C1085      C1099   1.423       .  A
C1085      C1093   1.390       .  A
C1086      C1094   1.386       .  A
C1086      C1097   1.419       .  A
C1087      C1095   1.386       .  A
C1087      C1098   1.418       .  A
C1088      C1089   1.378       .  A
C1088      H1100   1.082       .  S
C1089      H1101   1.082       .  S
C1090      C1091   1.374       .  A
C1090      H1102   1.082       .  S
C1091      H1103   1.082       .  S
C1092      C1093   1.372       .  A
C1092      H1104   1.082       .  S
C1093      H1105   1.082       .  S
C1094      C1095   1.375       .  A
C1094      H1106   1.082       .  S
C1095      H1107   1.082       .  S
C1096      C2454   1.499       .  S
C1097      C2437   1.490       .  S
C1098      C2926   1.494       .  S
C1099      C2546   1.493       .  S
N1110      C1115   1.355       .  A
N1110      C1114   1.355       .  A
N1110      H1142   1.035       .  S
N1111      C1118   1.355       .  A
N1111      C1119   1.354       .  A
N1112      C1117   1.353       .  A
N1112      C1116   1.355       .  A
N1112      H1143   1.038       .  S
N1113      C1120   1.356       .  A
N1113      C1121   1.354       .  A
C1114      C1122   1.386       .  A
C1114      C1130   1.418       .  A
C1115      C1131   1.421       .  A
C1115      C1123   1.389       .  A
C1116      C1124   1.383       .  A
C1116      C1133   1.413       .  A
C1117      C1132   1.418       .  A
C1117      C1125   1.390       .  A
C1118      C1130   1.419       .  A
C1118      C1126   1.385       .  A
C1119      C1133   1.422       .  A
C1119      C1127   1.389       .  A
C1120      C1128   1.386       .  A
C1120      C1131   1.423       .  A
C1121      C1129   1.388       .  A
C1121      C1132   1.422       .  A
C1122      C1123   1.376       .  A
C1122      H1134   1.082   1_556  S
C1123      H1135   1.082   1_556  S
C1124      C1125   1.367       .  A
C1124      H1136   1.081       .  S
C1125      H1137   1.078       .  S
C1126      C1127   1.372       .  A
C1126      H1138   1.082       .  S
C1127      H1139   1.082       .  S
C1128      C1129   1.377       .  A
C1128      H1140   1.082       .  S
C1129      H1141   1.082       .  S
C1130      C2449   1.494       .  S
C1131      C2462   1.497       .  S
C1132      C2429   1.490       .  S
C1133      C2762   1.496       .  S
N1144      C1149   1.354       .  A
N1144      C1148   1.355       .  A
N1144      H1176   1.035       .  S
N1145      C1152   1.355       .  A
N1145      C1153   1.353       .  A
N1146      C1151   1.355       .  A
N1146      C1150   1.352       .  A
N1146      H1177   1.038       .  S
N1147      C1154   1.357       .  A
N1147      C1155   1.356       .  A
C1148      C1156   1.386       .  A
C1148      C1164   1.417       .  A
C1149      C1165   1.421       .  A
C1149      C1157   1.389       .  A
C1150      C1158   1.384       .  A
C1150      C1167   1.413       .  A
C1151      C1166   1.418       .  A
C1151      C1159   1.390       .  A
C1152      C1164   1.417       .  A
C1152      C1160   1.385       .  A
C1153      C1167   1.422       .  A
C1153      C1161   1.390       .  A
C1154      C1162   1.384       .  A
C1154      C1165   1.420       .  A
C1155      C1163   1.390       .  A
C1155      C1166   1.425       .  A
C1156      C1157   1.375       .  A
C1156      H1168   1.082       .  S
C1157      H1169   1.081       .  S
C1158      C1159   1.369       .  A
C1158      H1170   1.082       .  S
C1159      H1171   1.077       .  S
C1160      C1161   1.373       .  A
C1160      H1172   1.082       .  S
C1161      H1173   1.082       .  S
C1162      C1163   1.374       .  A
C1162      H1174   1.082       .  S
C1163      H1175   1.082       .  S
C1164      C2474   1.492       .  S
C1165      C2458   1.495       .  S
C1166      C2717   1.495       .  S
C1167      C2658   1.492       .  S
N1178      C1183   1.354       .  A
N1178      C1182   1.357       .  A
N1178      H1210   1.037       .  S
N1179      C1186   1.353       .  A
N1179      C1187   1.351       .  A
N1180      C1185   1.351       .  A
N1180      C1184   1.347       .  A
N1180      H1211   1.041       .  S
N1181      C1188   1.351       .  A
N1181      C1189   1.353       .  A
C1182      C1190   1.387       .  A
C1182      C1198   1.420       .  A
C1183      C1199   1.419       .  A
C1183      C1191   1.388       .  A
C1184      C1192   1.388       .  A
C1184      C1201   1.406       .  A
C1185      C1200   1.403       .  A
C1185      C1193   1.385       .  A
C1186      C1198   1.417       .  A
C1186      C1194   1.387       .  A
C1187      C1201   1.413       .  A
C1187      C1195   1.386       .  A
C1188      C1196   1.388       .  A
C1188      C1199   1.417       .  A
C1189      C1197   1.384       .  A
C1189      C1200   1.412       .  A
C1190      C1191   1.377       .  A
C1190      H1202   1.082       .  S
C1191      H1203   1.082       .  S
C1192      C1193   1.369       .  A
C1192      H1204   1.082       .  S
C1193      H1205   1.082       .  S
C1194      C1195   1.376       .  A
C1194      H1206   1.082       .  S
C1195      H1207   1.082       .  S
C1196      C1197   1.375       .  A
C1196      H1208   1.082       .  S
C1197      H1209   1.082       .  S
C1198      C2478   1.494       .  S
C1199      C2446   1.486       .  S
C1200      C2638   1.488       .  S
C1201      C2566   1.480       .  S
O1212      C1228   1.275       .  A
O1212     Zn1218   2.039       .  S
C1213      O1229   1.272       .  A
C1213      O1226   1.275       .  A
C1213      C2425   1.470       .  S
O1214      C1227   1.280       .  A
O1214     Cd1221   2.120       .  S
O1215      C1233   1.268       .  A
O1215     Cd1224   2.012       .  S
O1216      C1230   1.271       .  A
O1216     Cd1220   2.051       .  S
O1217      C1228   1.271       .  A
O1217     Cd1220   2.042       .  S
Zn1218     O1229   1.986       .  S
Zn1218     O1231   1.953       .  S
Zn1218     O1223   1.910       .  S
O1219      C1230   1.275       .  A
O1219     Cd1224   2.069       .  S
Cd1220     O1222   2.000       .  S
Cd1220     O1223   1.959       .  S
Cd1221     O1225   2.118       .  S
Cd1221     O1234   2.118       .  S
Cd1221     O1223   2.039       .  S
O1222      C1232   1.266       .  A
O1223     Cd1224   1.980       .  S
Cd1224     O1226   2.079       .  S
O1225      C1232   1.279       .  A
C1227      O1231   1.268       .  A
C1227      C2417   1.480       .  S
C1228      C2422   1.472       .  S
C1230      C2430   1.471       .  S
C1232      C2486   1.475       .  S
C1233      O1234   1.281       .  A
C1233      C2834   1.477       .  S
O1235      C1251   1.278       .  A
O1235     Zn1241   2.042       .  S
C1236      O1252   1.277       .  A
C1236      O1249   1.271       .  A
C1236      C2842   1.468       .  S
O1237      C1250   1.282   1_455  A
O1237     Cd1244   2.140       .  S
O1238      C1256   1.263       .  A
O1238     Cd1247   1.982       .  S
O1239      C1253   1.273       .  A
O1239     Cd1243   2.086   1_565  S
O1240      C1251   1.271       .  A
O1240     Cd1243   2.040   1_655  S
Zn1241     O1252   2.026   1_545  S
Zn1241     O1254   1.952       .  S
Zn1241     O1246   1.915   1_645  S
O1242      C1253   1.268       .  A
O1242     Cd1247   2.044       .  S
Cd1243     O1245   1.995       .  S
Cd1243     O1246   1.975   1_545  S
Cd1244     O1248   2.128       .  S
Cd1244     O1257   2.131   1_545  S
Cd1244     O1246   2.035   1_545  S
O1245      C1255   1.266       .  A
O1246     Cd1247   1.956       .  S
Cd1247     O1249   2.034   1_455  S
O1248      C1255   1.283       .  A
C1250      O1254   1.266       .  A
C1250      C2406   1.490       .  S
C1251      C2414   1.472       .  S
C1253      C2574   1.474       .  S
C1255      C2401   1.476       .  S
C1256      O1257   1.282       .  A
C1256      C2409   1.474       .  S
C1258      C2393   1.477       .  S
C1258      N1259   1.359       .  A
C1258      N1263   1.357       .  A
N1259      C1260   1.359       .  A
C1260      C2397   1.479   1_545  S
C1260      N1261   1.362       .  A
N1261      C1262   1.361       .  A
C1262      C2389   1.479       .  S
C1262      N1263   1.358       .  A
C1264      C2385   1.486       .  S
C1264      N1265   1.364       .  A
C1264      N1269   1.356       .  A
N1265      C1266   1.365       .  A
C1266      C2381   1.489   1_545  S
C1266      N1267   1.364       .  A
N1267      C1268   1.363       .  A
C1268      C2377   1.480       .  S
C1268      N1269   1.357       .  A
C1270      C2373   1.483       .  S
C1270      N1271   1.358       .  A
C1270      N1275   1.363       .  A
N1271      C1272   1.359       .  A
C1272      C2365   1.480       .  S
C1272      N1273   1.360       .  A
N1273      C1274   1.360       .  A
C1274      C2369   1.482       .  S
C1274      N1275   1.362       .  A
N1276      C1281   1.355       .  A
N1276      C1280   1.354       .  A
N1276      H1308   1.034       .  S
N1277      C1284   1.354       .  A
N1277      C1285   1.353       .  A
N1278      C1283   1.354       .  A
N1278      C1282   1.351       .  A
N1278      H1309   1.037       .  S
N1279      C1286   1.353       .  A
N1279      C1287   1.354       .  A
C1280      C1288   1.387       .  A
C1280      C1296   1.418       .  A
C1281      C1297   1.421       .  A
C1281      C1289   1.389       .  A
C1282      C1290   1.384       .  A
C1282      C1299   1.413       .  A
C1283      C1298   1.418       .  A
C1283      C1291   1.391       .  A
C1284      C1296   1.418       .  A
C1284      C1292   1.386       .  A
C1285      C1299   1.416       .  A
C1285      C1293   1.387       .  A
C1286      C1294   1.386       .  A
C1286      C1297   1.417       .  A
C1287      C1295   1.387       .  A
C1287      C1298   1.420       .  A
C1288      C1289   1.376       .  A
C1288      H1300   1.082       .  S
C1289      H1301   1.082       .  S
C1290      C1291   1.365       .  A
C1290      H1302   1.082       .  S
C1291      H1303   1.077       .  S
C1292      C1293   1.375       .  A
C1292      H1304   1.082       .  S
C1293      H1305   1.082       .  S
C1294      C1295   1.376       .  A
C1294      H1306   1.082       .  S
C1295      H1307   1.082       .  S
C1296      C2378   1.491       .  S
C1297      C2370   1.490       .  S
C1298      C2922   1.493       .  S
C1299      C2562   1.490       .  S
N1310      C1315   1.354       .  A
N1310      C1314   1.353       .  A
N1310      H1342   1.035       .  S
N1311      C1318   1.354       .  A
N1311      C1319   1.353       .  A
N1312      C1317   1.352       .  A
N1312      C1316   1.354       .  A
N1312      H1343   1.039       .  S
N1313      C1320   1.354       .  A
N1313      C1321   1.352       .  A
C1314      C1322   1.388       .  A
C1314      C1330   1.417       .  A
C1315      C1331   1.417       .  A
C1315      C1323   1.388       .  A
C1316      C1324   1.386       .  A
C1316      C1333   1.413       .  A
C1317      C1332   1.412       .  A
C1317      C1325   1.387       .  A
C1318      C1330   1.418       .  A
C1318      C1326   1.386       .  A
C1319      C1333   1.418       .  A
C1319      C1327   1.387       .  A
C1320      C1328   1.387       .  A
C1320      C1331   1.418       .  A
C1321      C1329   1.387       .  A
C1321      C1332   1.416       .  A
C1322      C1323   1.375       .  A
C1322      H1334   1.082       .  S
C1323      H1335   1.082       .  S
C1324      C1325   1.371       .  A
C1324      H1336   1.082       .  S
C1325      H1337   1.082       .  S
C1326      C1327   1.374       .  A
C1326      H1338   1.082       .  S
C1327      H1339   1.082       .  S
C1328      C1329   1.374       .  A
C1328      H1340   1.082       .  S
C1329      H1341   1.082       .  S
C1330      C2366   1.489       .  S
C1331      C2390   1.489       .  S
C1332      C2697   1.484       .  S
C1333      C2774   1.493       .  S
C1344      C2357   1.480       .  S
C1344      N1345   1.359       .  A
C1344      N1349   1.360       .  A
N1345      C1346   1.361       .  A
C1346      C2362   1.481       .  S
C1346      N1347   1.360       .  A
N1347      C1348   1.361       .  A
C1348      C2353   1.480       .  S
C1348      N1349   1.358       .  A
N1350      C1355   1.354       .  A
N1350      C1354   1.353       .  A
N1350      H1382   1.035       .  S
N1351      C1358   1.356       .  A
N1351      C1359   1.354       .  A
N1352      C1357   1.352       .  A
N1352      C1356   1.353       .  A
N1352      H1383   1.040       .  S
N1353      C1360   1.353       .  A
N1353      C1361   1.352       .  A
C1354      C1362   1.387       .  A
C1354      C1370   1.417       .  A
C1355      C1371   1.418       .  A
C1355      C1363   1.388       .  A
C1356      C1364   1.386       .  A
C1356      C1373   1.412       .  A
C1357      C1372   1.411       .  A
C1357      C1365   1.386       .  A
C1358      C1370   1.418       .  A
C1358      C1366   1.385       .  A
C1359      C1373   1.421       .  A
C1359      C1367   1.389       .  A
C1360      C1368   1.386       .  A
C1360      C1371   1.415       .  A
C1361      C1369   1.387       .  A
C1361      C1372   1.414       .  A
C1362      C1363   1.376       .  A
C1362      H1374   1.082       .  S
C1363      H1375   1.082       .  S
C1364      C1365   1.373       .  A
C1364      H1376   1.082       .  S
C1365      H1377   1.082       .  S
C1366      C1367   1.373       .  A
C1366      H1378   1.082       .  S
C1367      H1379   1.082       .  S
C1368      C1369   1.374       .  A
C1368      H1380   1.082       .  S
C1369      H1381   1.082       .  S
C1370      C2374   1.494       .  S
C1371      C2354   1.488       .  S
C1372      C2421   1.484       .  S
C1373      C2958   1.493       .  S
N1384      C1389   1.353       .  A
N1384      C1388   1.356       .  A
N1384      H1416   1.034       .  S
N1385      C1392   1.356       .  A
N1385      C1393   1.354       .  A
N1386      C1391   1.355       .  A
N1386      C1390   1.352       .  A
N1386      H1417   1.039       .  S
N1387      C1394   1.353       .  A
N1387      C1395   1.354       .  A
C1388      C1396   1.389       .  A
C1388      C1404   1.422       .  A
C1389      C1405   1.417       .  A
C1389      C1397   1.386       .  A
C1390      C1398   1.390       .  A
C1390      C1407   1.418       .  A
C1391      C1406   1.413       .  A
C1391      C1399   1.383       .  A
C1392      C1404   1.421       .  A
C1392      C1400   1.386       .  A
C1393      C1407   1.420       .  A
C1393      C1401   1.388       .  A
C1394      C1402   1.386       .  A
C1394      C1405   1.416       .  A
C1395      C1403   1.388       .  A
C1395      C1406   1.419       .  A
C1396      C1397   1.376       .  A
C1396      H1408   1.081   1_565  S
C1397      H1409   1.082   1_565  S
C1398      C1399   1.367       .  A
C1398      H1410   1.077       .  S
C1399      H1411   1.081       .  S
C1400      C1401   1.377       .  A
C1400      H1412   1.082       .  S
C1401      H1413   1.082       .  S
C1402      C1403   1.373       .  A
C1402      H1414   1.082       .  S
C1403      H1415   1.082       .  S
C1404      C2382   1.499       .  S
C1405      C2398   1.486       .  S
C1406      C2766   1.496       .  S
C1407      C2677   1.489       .  S
N1418      C1423   1.353       .  A
N1418      C1422   1.355       .  A
N1418      H1450   1.038       .  S
N1419      C1426   1.357       .  A
N1419      C1427   1.355       .  A
N1420      C1425   1.354       .  A
N1420      C1424   1.356       .  A
N1420      H1451   1.040       .  S
N1421      C1428   1.355       .  A
N1421      C1429   1.353       .  A
C1422      C1430   1.388       .  A
C1422      C1438   1.416       .  A
C1423      C1439   1.415       .  A
C1423      C1431   1.387       .  A
C1424      C1432   1.386       .  A
C1424      C1441   1.416       .  A
C1425      C1440   1.415       .  A
C1425      C1433   1.386       .  A
C1426      C1438   1.418       .  A
C1426      C1434   1.384       .  A
C1427      C1441   1.423       .  A
C1427      C1435   1.389       .  A
C1428      C1436   1.385       .  A
C1428      C1439   1.414       .  A
C1429      C1437   1.388       .  A
C1429      C1440   1.418       .  A
C1430      C1431   1.374       .  A
C1430      H1442   1.082       .  S
C1431      H1443   1.082       .  S
C1432      C1433   1.373       .  A
C1432      H1444   1.081       .  S
C1433      H1445   1.082       .  S
C1434      C1435   1.374       .  A
C1434      H1446   1.082       .  S
C1435      H1447   1.082       .  S
C1436      C1437   1.374       .  A
C1436      H1448   1.082       .  S
C1437      H1449   1.082       .  S
C1438      C2386   1.495       .  S
C1439      C2361   1.489       .  S
C1440      C2349   1.490       .  S
C1441      C2405   1.500       .  S
N1452      C1457   1.354       .  A
N1452      C1456   1.352       .  A
N1452      H1484   1.038       .  S
N1453      C1460   1.353       .  A
N1453      C1461   1.353       .  A
N1454      C1459   1.352       .  A
N1454      C1458   1.350       .  A
N1454      H1485   1.040       .  S
N1455      C1462   1.353       .  A
N1455      C1463   1.351       .  A
C1456      C1464   1.388       .  A
C1456      C1472   1.417       .  A
C1457      C1473   1.414       .  A
C1457      C1465   1.386       .  A
C1458      C1466   1.386       .  A
C1458      C1475   1.408       .  A
C1459      C1474   1.410       .  A
C1459      C1467   1.387       .  A
C1460      C1472   1.415       .  A
C1460      C1468   1.386       .  A
C1461      C1475   1.416       .  A
C1461      C1469   1.387       .  A
C1462      C1470   1.384       .  A
C1462      C1473   1.410       .  A
C1463      C1471   1.389       .  A
C1463      C1474   1.415       .  A
C1464      C1465   1.374       .  A
C1464      H1476   1.082       .  S
C1465      H1477   1.082       .  S
C1466      C1467   1.372       .  A
C1466      H1478   1.082       .  S
C1467      H1479   1.082       .  S
C1468      C1469   1.375       .  A
C1468      H1480   1.082       .  S
C1469      H1481   1.082       .  S
C1470      C1471   1.372       .  A
C1470      H1482   1.082       .  S
C1471      H1483   1.082       .  S
C1472      C2394   1.488       .  S
C1473      C2358   1.486       .  S
C1474      C2541   1.483       .  S
C1475      C2633   1.487       .  S
C1486      C2342   1.484   1_455  S
C1486      N1487   1.363       .  A
C1486      N1491   1.361       .  A
N1487      C1488   1.360       .  A
C1488      C2345   1.482       .  S
C1488      N1489   1.359       .  A
N1489      C1490   1.357       .  A
C1490      C2337   1.481       .  S
C1490      N1491   1.361       .  A
N1492      C1497   1.354       .  A
N1492      C1496   1.353       .  A
N1492      H1524   1.033       .  S
N1493      C1500   1.357       .  A
N1493      C1501   1.355       .  A
N1494      C1499   1.353       .  A
N1494      C1498   1.351       .  A
N1494      H1525   1.040       .  S
N1495      C1502   1.355       .  A
N1495      C1503   1.352       .  A
C1496      C1504   1.388       .  A
C1496      C1512   1.419       .  A
C1497      C1513   1.420       .  A
C1497      C1505   1.388       .  A
C1498      C1506   1.385       .  A
C1498      C1515   1.409       .  A
C1499      C1514   1.412       .  A
C1499      C1507   1.387       .  A
C1500      C1512   1.421       .  A
C1500      C1508   1.384       .  A
C1501      C1515   1.424       .  A
C1501      C1509   1.390       .  A
C1502      C1510   1.386       .  A
C1502      C1513   1.417       .  A
C1503      C1511   1.388       .  A
C1503      C1514   1.418       .  A
C1504      C1505   1.375       .  A
C1504      H1516   1.082       .  S
C1505      H1517   1.081       .  S
C1506      C1507   1.373       .  A
C1506      H1518   1.082       .  S
C1507      H1519   1.082       .  S
C1508      C1509   1.373       .  A
C1508      H1520   1.082       .  S
C1509      H1521   1.081       .  S
C1510      C1511   1.373       .  A
C1510      H1522   1.082       .  S
C1511      H1523   1.082       .  S
C1512      C2333   1.494       .  S
C1513      C2338   1.492       .  S
C1514      C2666   1.486       .  S
C1515      C2809   1.491       .  S
C1526      C2321   1.484       .  S
C1526      N1527   1.366       .  A
C1526      N1531   1.359       .  A
N1527      C1528   1.367       .  A
C1528      C2325   1.482       .  S
C1528      N1529   1.359       .  A
N1529      C1530   1.358       .  A
C1530      C2329   1.482       .  S
C1530      N1531   1.357       .  A
C1532      C2317   1.477       .  S
C1532      N1533   1.355       .  A
C1532      N1537   1.357       .  A
N1533      C1534   1.358       .  A
C1534      C2334   1.482       .  S
C1534      N1535   1.367       .  A
N1535      C1536   1.366       .  A
C1536      C2313   1.481       .  S
C1536      N1537   1.357       .  A
N1538      C1543   1.354       .  A
N1538      C1542   1.356       .  A
N1538      H1570   1.038       .  S
N1539      C1546   1.357       .  A
N1539      C1547   1.355       .  A
N1540      C1545   1.354       .  A
N1540      C1544   1.353       .  A
N1540      H1571   1.041       .  S
N1541      C1548   1.357       .  A
N1541      C1549   1.354       .  A
C1542      C1550   1.388       .  A
C1542      C1558   1.419       .  A
C1543      C1559   1.416       .  A
C1543      C1551   1.387       .  A
C1544      C1552   1.384       .  A
C1544      C1561   1.410       .  A
C1545      C1560   1.417       .  A
C1545      C1553   1.389       .  A
C1546      C1558   1.417       .  A
C1546      C1554   1.384       .  A
C1547      C1561   1.422       .  A
C1547      C1555   1.389       .  A
C1548      C1556   1.384       .  A
C1548      C1559   1.417       .  A
C1549      C1557   1.389       .  A
C1549      C1560   1.422       .  A
C1550      C1551   1.376       .  A
C1550      H1562   1.082       .  S
C1551      H1563   1.082       .  S
C1552      C1553   1.376       .  A
C1552      H1564   1.082       .  S
C1553      H1565   1.081       .  S
C1554      C1555   1.372       .  A
C1554      H1566   1.082       .  S
C1555      H1567   1.082       .  S
C1556      C1557   1.373       .  A
C1556      H1568   1.082       .  S
C1557      H1569   1.082       .  S
C1558      C2314   1.499       .  S
C1559      C2322   1.497       .  S
C1560      C2749   1.496       .  S
C1561      C2942   1.492       .  S
C1572      C2309   1.476       .  S
C1572      N1573   1.357       .  A
C1572      N1577   1.361       .  A
N1573      C1574   1.359       .  A
C1574      C2305   1.476       .  S
C1574      N1575   1.356       .  A
N1575      C1576   1.359       .  A
C1576      C2301   1.476   1_455  S
C1576      N1577   1.359       .  A
N1578      C1583   1.352       .  A
N1578      C1582   1.353       .  A
N1578      H1610   1.035       .  S
N1579      C1586   1.352       .  A
N1579      C1587   1.351       .  A
N1580      C1585   1.350       .  A
N1580      C1584   1.350       .  A
N1580      H1611   1.038       .  S
N1581      C1588   1.352       .  A
N1581      C1589   1.352       .  A
C1582      C1590   1.387       .  A
C1582      C1598   1.414       .  A
C1583      C1599   1.415       .  A
C1583      C1591   1.388       .  A
C1584      C1592   1.387       .  A
C1584      C1601   1.409       .  A
C1585      C1600   1.408       .  A
C1585      C1593   1.386       .  A
C1586      C1598   1.412       .  A
C1586      C1594   1.385       .  A
C1587      C1601   1.414       .  A
C1587      C1595   1.387       .  A
C1588      C1596   1.386       .  A
C1588      C1599   1.415       .  A
C1589      C1597   1.386       .  A
C1589      C1600   1.413       .  A
C1590      C1591   1.374       .  A
C1590      H1602   1.082       .  S
C1591      H1603   1.082       .  S
C1592      C1593   1.372       .  A
C1592      H1604   1.082       .  S
C1593      H1605   1.082       .  S
C1594      C1595   1.374       .  A
C1594      H1606   1.082       .  S
C1595      H1607   1.082       .  S
C1596      C1597   1.374       .  A
C1596      H1608   1.082       .  S
C1597      H1609   1.082       .  S
C1598      C2306   1.482       .  S
C1599      C2318   1.485       .  S
C1600      C2790   1.483       .  S
C1601      C2297   1.482       .  S
N1612      C1617   1.355       .  A
N1612      C1616   1.354       .  A
N1612      H1644   1.034       .  S
N1613      C1620   1.350       .  A
N1613      C1621   1.352       .  A
N1614      C1619   1.349       .  A
N1614      C1618   1.351       .  A
N1614      H1645   1.040       .  S
N1615      C1622   1.354       .  A
N1615      C1623   1.353       .  A
C1616      C1624   1.387       .  A
C1616      C1632   1.419       .  A
C1617      C1633   1.420       .  A
C1617      C1625   1.388       .  A
C1618      C1626   1.385       .  A
C1618      C1635   1.406       .  A
C1619      C1634   1.408       .  A
C1619      C1627   1.387       .  A
C1620      C1632   1.413       .  A
C1620      C1628   1.387       .  A
C1621      C1635   1.412       .  A
C1621      C1629   1.386       .  A
C1622      C1630   1.387       .  A
C1622      C1633   1.418       .  A
C1623      C1631   1.386       .  A
C1623      C1634   1.416       .  A
C1624      C1625   1.374       .  A
C1624      H1636   1.082   1_655  S
C1625      H1637   1.081   1_655  S
C1626      C1627   1.369       .  A
C1626      H1638   1.082       .  S
C1627      H1639   1.082       .  S
C1628      C1629   1.374       .  A
C1628      H1640   1.082       .  S
C1629      H1641   1.082       .  S
C1630      C1631   1.376       .  A
C1630      H1642   1.082       .  S
C1631      H1643   1.082       .  S
C1632      C2302   1.482       .  S
C1633      C2341   1.492       .  S
C1634      C2686   1.484       .  S
C1635      C2426   1.484       .  S
N1646      C1651   1.354       .  A
N1646      C1650   1.354       .  A
N1646      H1678   1.035       .  S
N1647      C1654   1.354       .  A
N1647      C1655   1.354       .  A
N1648      C1653   1.352       .  A
N1648      C1652   1.353       .  A
N1648      H1679   1.038       .  S
N1649      C1656   1.354       .  A
N1649      C1657   1.353       .  A
C1650      C1658   1.387       .  A
C1650      C1666   1.417       .  A
C1651      C1667   1.420       .  A
C1651      C1659   1.389       .  A
C1652      C1660   1.383       .  A
C1652      C1669   1.411       .  A
C1653      C1668   1.417       .  A
C1653      C1661   1.391       .  A
C1654      C1666   1.414       .  A
C1654      C1662   1.384       .  A
C1655      C1669   1.421       .  A
C1655      C1663   1.389       .  A
C1656      C1664   1.385       .  A
C1656      C1667   1.416       .  A
C1657      C1665   1.388       .  A
C1657      C1668   1.418       .  A
C1658      C1659   1.375       .  A
C1658      H1670   1.082       .  S
C1659      H1671   1.082       .  S
C1660      C1661   1.367       .  A
C1660      H1672   1.082       .  S
C1661      H1673   1.079       .  S
C1662      C1663   1.372       .  A
C1662      H1674   1.082       .  S
C1663      H1675   1.082       .  S
C1664      C1665   1.375       .  A
C1664      H1676   1.082       .  S
C1665      H1677   1.082       .  S
C1666      C2346   1.487       .  S
C1667      C2330   1.490       .  S
C1668      C2694   1.486       .  S
C1669      C2410   1.492       .  S
N1680      C1685   1.355       .  A
N1680      C1684   1.351       .  A
N1680      H1712   1.036       .  S
N1681      C1688   1.353       .  A
N1681      C1689   1.354       .  A
N1682      C1687   1.349       .  A
N1682      C1686   1.355       .  A
N1682      H1713   1.040       .  S
N1683      C1690   1.354       .  A
N1683      C1691   1.353       .  A
C1684      C1692   1.387       .  A
C1684      C1700   1.414       .  A
C1685      C1701   1.419       .  A
C1685      C1693   1.388       .  A
C1686      C1694   1.384       .  A
C1686      C1703   1.413       .  A
C1687      C1702   1.413       .  A
C1687      C1695   1.389       .  A
C1688      C1700   1.414       .  A
C1688      C1696   1.386       .  A
C1689      C1703   1.418       .  A
C1689      C1697   1.387       .  A
C1690      C1698   1.385       .  A
C1690      C1701   1.416       .  A
C1691      C1699   1.388       .  A
C1691      C1702   1.417       .  A
C1692      C1693   1.377       .  A
C1692      H1704   1.082       .  S
C1693      H1705   1.082       .  S
C1694      C1695   1.371       .  A
C1694      H1706   1.081       .  S
C1695      H1707   1.078       .  S
C1696      C1697   1.374       .  A
C1696      H1708   1.082       .  S
C1697      H1709   1.082       .  S
C1698      C1699   1.377       .  A
C1698      H1710   1.082       .  S
C1699      H1711   1.082       .  S
C1700      C2310   1.482       .  S
C1701      C2326   1.496       .  S
C1702      C2734   1.484       .  S
C1703      C2714   1.497       .  S
C1714      C2285   1.481       .  S
C1714      N1715   1.359       .  A
C1714      N1719   1.365       .  A
N1715      C1716   1.357       .  A
C1716      C2289   1.479       .  S
C1716      N1717   1.357       .  A
N1717      C1718   1.357       .  A
C1718      C2293   1.480       .  S
C1718      N1719   1.365       .  A
N1720      C1725   1.354       .  A
N1720      C1724   1.353       .  A
N1720      H1752   1.036       .  S
N1721      C1728   1.355       .  A
N1721      C1729   1.353       .  A
N1722      C1727   1.354       .  A
N1722      C1726   1.352       .  A
N1722      H1753   1.039       .  S
N1723      C1730   1.352       .  A
N1723      C1731   1.351       .  A
C1724      C1732   1.388       .  A
C1724      C1740   1.417       .  A
C1725      C1741   1.417       .  A
C1725      C1733   1.387       .  A
C1726      C1734   1.389       .  A
C1726      C1743   1.415       .  A
C1727      C1742   1.413       .  A
C1727      C1735   1.385       .  A
C1728      C1740   1.416       .  A
C1728      C1736   1.385       .  A
C1729      C1743   1.419       .  A
C1729      C1737   1.389       .  A
C1730      C1738   1.385       .  A
C1730      C1741   1.412       .  A
C1731      C1739   1.389       .  A
C1731      C1742   1.416       .  A
C1732      C1733   1.373       .  A
C1732      H1744   1.082       .  S
C1733      H1745   1.081       .  S
C1734      C1735   1.370       .  A
C1734      H1746   1.078       .  S
C1735      H1747   1.081       .  S
C1736      C1737   1.377       .  A
C1736      H1748   1.082       .  S
C1737      H1749   1.082       .  S
C1738      C1739   1.372       .  A
C1738      H1750   1.082       .  S
C1739      H1751   1.082       .  S
C1740      C2281   1.490       .  S
C1741      C2290   1.487       .  S
C1742      C2918   1.488       .  S
C1743      C2938   1.485       .  S
C1754      C2282   1.482       .  S
C1754      N1755   1.359       .  A
C1754      N1759   1.362       .  A
N1755      C1756   1.358       .  A
C1756      C2273   1.485       .  S
C1756      N1757   1.361       .  A
N1757      C1758   1.362       .  A
C1758      C2277   1.485       .  S
C1758      N1759   1.363       .  A
C1760      C2261   1.488       .  S
C1760      N1761   1.366       .  A
C1760      N1765   1.360       .  A
N1761      C1762   1.367       .  A
C1762      C2265   1.487       .  S
C1762      N1763   1.362       .  A
N1763      C1764   1.360       .  A
C1764      C2269   1.488   1_655  S
C1764      N1765   1.358       .  A
C1766      C2257   1.485   1_655  S
C1766      N1767   1.360       .  A
C1766      N1771   1.361       .  A
N1767      C1768   1.362       .  A
C1768      C2250   1.486       .  S
C1768      N1769   1.361       .  A
N1769      C1770   1.362       .  A
C1770      C2254   1.485       .  S
C1770      N1771   1.361       .  A
N1772      C1777   1.354       .  A
N1772      C1776   1.356       .  A
N1772      H1804   1.037       .  S
N1773      C1780   1.355       .  A
N1773      C1781   1.353       .  A
N1774      C1779   1.354       .  A
N1774      C1778   1.351       .  A
N1774      H1805   1.038       .  S
N1775      C1782   1.355       .  A
N1775      C1783   1.354       .  A
C1776      C1784   1.388       .  A
C1776      C1792   1.420       .  A
C1777      C1793   1.417       .  A
C1777      C1785   1.386       .  A
C1778      C1786   1.390       .  A
C1778      C1795   1.415       .  A
C1779      C1794   1.410       .  A
C1779      C1787   1.383       .  A
C1780      C1792   1.418       .  A
C1780      C1788   1.385       .  A
C1781      C1795   1.419       .  A
C1781      C1789   1.388       .  A
C1782      C1790   1.384       .  A
C1782      C1793   1.416       .  A
C1783      C1791   1.389       .  A
C1783      C1794   1.422       .  A
C1784      C1785   1.375       .  A
C1784      H1796   1.082   1_455  S
C1785      H1797   1.082       .  S
C1786      C1787   1.366       .  A
C1786      H1798   1.078       .  S
C1787      H1799   1.081       .  S
C1788      C1789   1.376       .  A
C1788      H1800   1.082       .  S
C1789      H1801   1.082       .  S
C1790      C1791   1.374       .  A
C1790      H1802   1.082       .  S
C1791      H1803   1.082       .  S
C1792      C2270   1.496       .  S
C1793      C2258   1.491       .  S
C1794      C2781   1.493       .  S
C1795      C2805   1.482       .  S
N1806      C1811   1.354       .  A
N1806      C1810   1.353       .  A
N1806      H1838   1.038       .  S
N1807      C1814   1.356       .  A
N1807      C1815   1.354       .  A
N1808      C1813   1.354       .  A
N1808      C1812   1.355       .  A
N1808      H1839   1.041       .  S
N1809      C1816   1.357       .  A
N1809      C1817   1.353       .  A
C1810      C1818   1.387       .  A
C1810      C1826   1.414       .  A
C1811      C1827   1.415       .  A
C1811      C1819   1.388       .  A
C1812      C1820   1.386       .  A
C1812      C1829   1.416       .  A
C1813      C1828   1.415       .  A
C1813      C1821   1.387       .  A
C1814      C1826   1.415       .  A
C1814      C1822   1.383       .  A
C1815      C1829   1.422       .  A
C1815      C1823   1.389       .  A
C1816      C1824   1.384       .  A
C1816      C1827   1.417       .  A
C1817      C1825   1.390       .  A
C1817      C1828   1.422       .  A
C1818      C1819   1.376       .  A
C1818      H1830   1.082       .  S
C1819      H1831   1.082       .  S
C1820      C1821   1.375       .  A
C1820      H1832   1.081       .  S
C1821      H1833   1.082       .  S
C1822      C1823   1.373       .  A
C1822      H1834   1.082       .  S
C1823      H1835   1.082       .  S
C1824      C1825   1.372       .  A
C1824      H1836   1.082       .  S
C1825      H1837   1.082       .  S
C1826      C2249   1.490       .  S
C1827      C2274   1.495       .  S
C1828      C2418   1.492       .  S
C1829      C2245   1.496       .  S
N1840      C1845   1.357       .  A
N1840      C1844   1.355       .  A
N1840      H1872   1.033       .  S
N1841      C1848   1.353       .  A
N1841      C1849   1.353       .  A
N1842      C1847   1.353       .  A
N1842      C1846   1.352       .  A
N1842      H1873   1.039       .  S
N1843      C1850   1.355       .  A
N1843      C1851   1.354       .  A
C1844      C1852   1.388       .  A
C1844      C1860   1.422       .  A
C1845      C1861   1.423       .  A
C1845      C1853   1.387       .  A
C1846      C1854   1.386       .  A
C1846      C1863   1.414       .  A
C1847      C1862   1.411       .  A
C1847      C1855   1.387       .  A
C1848      C1860   1.419       .  A
C1848      C1856   1.387       .  A
C1849      C1863   1.417       .  A
C1849      C1857   1.387       .  A
C1850      C1858   1.386       .  A
C1850      C1861   1.419       .  A
C1851      C1859   1.387       .  A
C1851      C1862   1.418       .  A
C1852      C1853   1.376       .  A
C1852      H1864   1.082       .  S
C1853      H1865   1.082       .  S
C1854      C1855   1.366       .  A
C1854      H1866   1.082       .  S
C1855      H1867   1.077       .  S
C1856      C1857   1.376       .  A
C1856      H1868   1.082       .  S
C1857      H1869   1.082       .  S
C1858      C1859   1.376       .  A
C1858      H1870   1.082       .  S
C1859      H1871   1.082       .  S
C1860      C2294   1.490       .  S
C1861      C2266   1.498       .  S
C1862      C2726   1.489       .  S
C1863      C2554   1.491       .  S
N1874      C1879   1.356       .  A
N1874      C1878   1.354       .  A
N1874      H1906   1.035       .  S
N1875      C1882   1.356       .  A
N1875      C1883   1.355       .  A
N1876      C1881   1.354       .  A
N1876      C1880   1.354       .  A
N1876      H1907   1.040       .  S
N1877      C1884   1.354       .  A
N1877      C1885   1.352       .  A
C1878      C1886   1.388       .  A
C1878      C1894   1.420       .  A
C1879      C1895   1.419       .  A
C1879      C1887   1.387       .  A
C1880      C1888   1.388       .  A
C1880      C1897   1.415       .  A
C1881      C1896   1.413       .  A
C1881      C1889   1.384       .  A
C1882      C1894   1.421       .  A
C1882      C1890   1.385       .  A
C1883      C1897   1.421       .  A
C1883      C1891   1.387       .  A
C1884      C1892   1.385       .  A
C1884      C1895   1.415       .  A
C1885      C1893   1.389       .  A
C1885      C1896   1.419       .  A
C1886      C1887   1.377       .  A
C1886      H1898   1.082       .  S
C1887      H1899   1.082       .  S
C1888      C1889   1.369       .  A
C1888      H1900   1.078       .  S
C1889      H1901   1.081       .  S
C1890      C1891   1.377       .  A
C1890      H1902   1.082       .  S
C1891      H1903   1.082       .  S
C1892      C1893   1.373       .  A
C1892      H1904   1.082       .  S
C1893      H1905   1.082       .  S
C1894      C2262   1.496       .  S
C1895      C2278   1.493       .  S
C1896      C2670   1.493       .  S
C1897      C2654   1.492       .  S
N1908      C1913   1.355       .  A
N1908      C1912   1.355       .  A
N1908      H1940   1.033       .  S
N1909      C1916   1.356       .  A
N1909      C1917   1.356       .  A
N1910      C1915   1.354       .  A
N1910      C1914   1.355       .  A
N1910      H1941   1.039       .  S
N1911      C1918   1.355       .  A
N1911      C1919   1.353       .  A
C1912      C1920   1.391       .  A
C1912      C1928   1.425       .  A
C1913      C1929   1.419       .  A
C1913      C1921   1.385       .  A
C1914      C1922   1.391       .  A
C1914      C1931   1.421       .  A
C1915      C1930   1.412       .  A
C1915      C1923   1.382       .  A
C1916      C1928   1.423       .  A
C1916      C1924   1.387       .  A
C1917      C1931   1.422       .  A
C1917      C1925   1.387       .  A
C1918      C1926   1.385       .  A
C1918      C1929   1.416       .  A
C1919      C1927   1.389       .  A
C1919      C1930   1.419       .  A
C1920      C1921   1.374       .  A
C1920      H1932   1.080       .  S
C1921      H1933   1.082       .  S
C1922      C1923   1.364       .  A
C1922      H1934   1.078       .  S
C1923      H1935   1.082       .  S
C1924      C1925   1.377       .  A
C1924      H1936   1.082       .  S
C1925      H1937   1.082       .  S
C1926      C1927   1.372       .  A
C1926      H1938   1.082       .  S
C1927      H1939   1.082       .  S
C1928      C2253   1.496       .  S
C1929      C2286   1.495       .  S
C1930      C2570   1.495       .  S
C1931      C2413   1.497       .  S
O1942      C1958   1.272       .  A
O1942     Zn1948   2.001   1_455  S
C1943      O1959   1.274       .  A
C1943      O1956   1.274       .  A
C1943      C2350   1.471       .  S
O1944      C1957   1.281       .  A
O1944     Cd1951   2.126       .  S
O1945      C1963   1.264       .  A
O1945     Cd1954   1.988   1_655  S
O1946      C1960   1.269       .  A
O1946     Cd1950   2.049       .  S
O1947      C1958   1.269       .  A
O1947     Cd1950   2.051       .  S
Zn1948     O1959   2.022       .  S
Zn1948     O1961   1.958       .  S
Zn1948     O1953   1.913   1_655  S
O1949      C1960   1.273       .  A
O1949     Cd1954   2.060       .  S
Cd1950     O1952   2.009       .  S
Cd1950     O1953   1.984       .  S
Cd1951     O1955   2.125   1_655  S
Cd1951     O1964   2.132       .  S
Cd1951     O1953   2.043   1_655  S
O1952      C1962   1.268       .  A
O1953     Cd1954   1.965       .  S
Cd1954     O1956   2.062   1_455  S
O1955      C1962   1.282       .  A
C1957      O1961   1.268       .  A
C1957      C2246   1.484       .  S
C1958      C2298   1.462       .  S
C1960      C2242   1.465       .  S
C1962      C2482   1.478       .  S
C1963      O1964   1.281       .  A
C1963      C2817   1.478       .  S
C1965      C2234   1.483   1_554  S
C1965      N1966   1.353       .  A
C1965      N1970   1.362       .  A
N1966      C1967   1.355       .  A
C1967      C2237   1.478   1_455  S
C1967      N1968   1.364       .  A
N1968      C1969   1.367       .  A
C1969      C2229   1.490       .  S
C1969      N1970   1.365       .  A
N1971      C1976   1.356       .  A
N1971      C1975   1.355       .  A
N1971      H2003   1.037       .  S
N1972      C1979   1.358       .  A
N1972      C1980   1.356       .  A
N1973      C1978   1.353       .  A
N1973      C1977   1.353       .  A
N1973      H2004   1.040       .  S
N1974      C1981   1.357       .  A
N1974      C1982   1.355       .  A
C1975      C1983   1.388       .  A
C1975      C1991   1.419       .  A
C1976      C1992   1.419       .  A
C1976      C1984   1.387       .  A
C1977      C1985   1.387       .  A
C1977      C1994   1.413       .  A
C1978      C1993   1.412       .  A
C1978      C1986   1.386       .  A
C1979      C1991   1.420       .  A
C1979      C1987   1.384       .  A
C1980      C1994   1.426       .  A
C1980      C1988   1.390       .  A
C1981      C1989   1.384       .  A
C1981      C1992   1.418       .  A
C1982      C1990   1.390       .  A
C1982      C1993   1.423       .  A
C1983      C1984   1.376       .  A
C1983      H1995   1.082       .  S
C1984      H1996   1.082       .  S
C1985      C1986   1.373       .  A
C1985      H1997   1.082       .  S
C1986      H1998   1.082       .  S
C1987      C1988   1.374       .  A
C1987      H1999   1.082       .  S
C1988      H2000   1.082       .  S
C1989      C1990   1.373       .  A
C1989      H2001   1.082       .  S
C1990      H2002   1.082       .  S
C1991      C2230   1.497       .  S
C1992      C2226   1.500       .  S
C1993      C2793   1.491       .  S
C1994      C2710   1.496       .  S
C2005      C2214   1.482       .  S
C2005      N2006   1.357       .  A
C2005      N2010   1.359       .  A
N2006      C2007   1.357       .  A
C2007      C2218   1.482   1_455  S
C2007      N2008   1.365       .  A
N2008      C2009   1.365       .  A
C2009      C2222   1.489   1_545  S
C2009      N2010   1.363       .  A
C2011      C2225   1.488       .  S
C2011      N2012   1.360       .  A
C2011      N2016   1.366       .  A
N2012      C2013   1.358       .  A
C2013      C2209   1.487       .  S
C2013      N2014   1.360       .  A
N2014      C2015   1.362       .  A
C2015      C2205   1.490       .  S
C2015      N2016   1.368       .  A
N2017      C2022   1.355       .  A
N2017      C2021   1.354       .  A
N2017      H2049   1.037       .  S
N2018      C2025   1.353       .  A
N2018      C2026   1.353       .  A
N2019      C2024   1.352       .  A
N2019      C2023   1.355       .  A
N2019      H2050   1.040       .  S
N2020      C2027   1.356       .  A
N2020      C2028   1.354       .  A
C2021      C2029   1.387       .  A
C2021      C2037   1.416       .  A
C2022      C2038   1.419       .  A
C2022      C2030   1.389       .  A
C2023      C2031   1.383       .  A
C2023      C2040   1.412       .  A
C2024      C2039   1.417       .  A
C2024      C2032   1.390       .  A
C2025      C2037   1.415       .  A
C2025      C2033   1.386       .  A
C2026      C2040   1.418       .  A
C2026      C2034   1.388       .  A
C2027      C2035   1.385       .  A
C2027      C2038   1.421       .  A
C2028      C2036   1.388       .  A
C2028      C2039   1.421       .  A
C2029      C2030   1.376       .  A
C2029      H2041   1.082       .  S
C2030      H2042   1.082       .  S
C2031      C2032   1.366       .  A
C2031      H2043   1.081       .  S
C2032      H2044   1.077       .  S
C2033      C2034   1.373       .  A
C2033      H2045   1.082       .  S
C2034      H2046   1.082       .  S
C2035      C2036   1.377       .  A
C2035      H2047   1.082       .  S
C2036      H2048   1.082       .  S
C2037      C2213   1.488       .  S
C2038      C2206   1.499       .  S
C2039      C2769   1.489       .  S
C2040      C2402   1.494       .  S
C2051      C2194   1.479       .  S
C2051      N2052   1.360       .  A
C2051      N2056   1.358       .  A
N2052      C2053   1.358       .  A
C2053      C2202   1.485   1_554  S
C2053      N2054   1.363       .  A
N2054      C2055   1.362       .  A
C2055      C2197   1.485   1_545  S
C2055      N2056   1.360       .  A
N2057      C2062   1.353       .  A
N2057      C2061   1.357       .  A
N2057      H2089   1.035       .  S
N2058      C2065   1.355       .  A
N2058      C2066   1.353       .  A
N2059      C2064   1.353       .  A
N2059      C2063   1.349       .  A
N2059      H2090   1.038       .  S
N2060      C2067   1.352       .  A
N2060      C2068   1.355       .  A
C2061      C2069   1.387       .  A
C2061      C2077   1.421       .  A
C2062      C2078   1.418       .  A
C2062      C2070   1.388       .  A
C2063      C2071   1.386       .  A
C2063      C2080   1.408       .  A
C2064      C2079   1.411       .  A
C2064      C2072   1.387       .  A
C2065      C2077   1.417       .  A
C2065      C2073   1.385       .  A
C2066      C2080   1.418       .  A
C2066      C2074   1.388       .  A
C2067      C2075   1.387       .  A
C2067      C2078   1.416       .  A
C2068      C2076   1.385       .  A
C2068      C2079   1.416       .  A
C2069      C2070   1.375       .  A
C2069      H2081   1.082       .  S
C2070      H2082   1.082       .  S
C2071      C2072   1.371       .  A
C2071      H2083   1.082       .  S
C2072      H2084   1.082       .  S
C2073      C2074   1.375       .  A
C2073      H2085   1.082       .  S
C2074      H2086   1.082       .  S
C2075      C2076   1.375       .  A
C2075      H2087   1.082       .  S
C2076      H2088   1.082       .  S
C2077      C2210   1.499       .  S
C2078      C2193   1.484       .  S
C2079      C2629   1.492       .  S
C2080      C2914   1.482       .  S
N2091      C2096   1.354       .  A
N2091      C2095   1.355       .  A
N2091      H2123   1.036       .  S
N2092      C2099   1.353       .  A
N2092      C2100   1.353       .  A
N2093      C2098   1.351       .  A
N2093      C2097   1.353       .  A
N2093      H2124   1.037       .  S
N2094      C2101   1.354       .  A
N2094      C2102   1.353       .  A
C2095      C2103   1.388       .  A
C2095      C2111   1.420       .  A
C2096      C2112   1.418       .  A
C2096      C2104   1.387       .  A
C2097      C2105   1.389       .  A
C2097      C2114   1.416       .  A
C2098      C2113   1.414       .  A
C2098      C2106   1.386       .  A
C2099      C2111   1.417       .  A
C2099      C2107   1.386       .  A
C2100      C2114   1.419       .  A
C2100      C2108   1.387       .  A
C2101      C2109   1.386       .  A
C2101      C2112   1.416       .  A
C2102      C2110   1.387       .  A
C2102      C2113   1.417       .  A
C2103      C2104   1.377       .  A
C2103      H2115   1.082   1_556  S
C2104      H2116   1.082   1_556  S
C2105      C2106   1.367       .  A
C2105      H2117   1.078       .  S
C2106      H2118   1.082       .  S
C2107      C2108   1.377       .  A
C2107      H2119   1.082       .  S
C2108      H2120   1.082       .  S
C2109      C2110   1.376       .  A
C2109      H2121   1.082       .  S
C2110      H2122   1.082       .  S
C2111      C2201   1.491       .  S
C2112      C2233   1.491       .  S
C2113      C2241   1.489       .  S
C2114      C2689   1.490       .  S
N2125      C2130   1.356       .  A
N2125      C2129   1.355       .  A
N2125      H2157   1.033       .  S
N2126      C2133   1.356       .  A
N2126      C2134   1.354       .  A
N2127      C2132   1.354       .  A
N2127      C2131   1.353       .  A
N2127      H2158   1.038       .  S
N2128      C2135   1.355       .  A
N2128      C2136   1.355       .  A
C2129      C2137   1.384       .  A
C2129      C2145   1.417       .  A
C2130      C2146   1.425       .  A
C2130      C2138   1.390       .  A
C2131      C2139   1.385       .  A
C2131      C2148   1.415       .  A
C2132      C2147   1.417       .  A
C2132      C2140   1.389       .  A
C2133      C2145   1.417       .  A
C2133      C2141   1.384       .  A
C2134      C2148   1.421       .  A
C2134      C2142   1.389       .  A
C2135      C2143   1.387       .  A
C2135      C2146   1.421       .  A
C2136      C2144   1.387       .  A
C2136      C2147   1.421       .  A
C2137      C2138   1.375       .  A
C2137      H2149   1.082   1_565  S
C2138      H2150   1.080   1_565  S
C2139      C2140   1.370       .  A
C2139      H2151   1.082       .  S
C2140      H2152   1.078       .  S
C2141      C2142   1.373       .  A
C2141      H2153   1.082       .  S
C2142      H2154   1.082       .  S
C2143      C2144   1.375       .  A
C2143      H2155   1.082       .  S
C2144      H2156   1.082       .  S
C2145      C2221   1.494       .  S
C2146      C2198   1.495       .  S
C2147      C2730   1.492       .  S
C2148      C2650   1.494       .  S
N2159      C2164   1.354       .  A
N2159      C2163   1.354       .  A
N2159      H2191   1.034       .  S
N2160      C2167   1.354       .  A
N2160      C2168   1.353       .  A
N2161      C2166   1.352       .  A
N2161      C2165   1.352       .  A
N2161      H2192   1.039       .  S
N2162      C2169   1.355       .  A
N2162      C2170   1.353       .  A
C2163      C2171   1.389       .  A
C2163      C2179   1.421       .  A
C2164      C2180   1.418       .  A
C2164      C2172   1.386       .  A
C2165      C2173   1.389       .  A
C2165      C2182   1.414       .  A
C2166      C2181   1.408       .  A
C2166      C2174   1.384       .  A
C2167      C2179   1.417       .  A
C2167      C2175   1.386       .  A
C2168      C2182   1.418       .  A
C2168      C2176   1.387       .  A
C2169      C2177   1.384       .  A
C2169      C2180   1.414       .  A
C2170      C2178   1.390       .  A
C2170      C2181   1.419       .  A
C2171      C2172   1.374       .  A
C2171      H2183   1.081   1_655  S
C2172      H2184   1.082   1_655  S
C2173      C2174   1.373       .  A
C2173      H2185   1.082       .  S
C2174      H2186   1.082       .  S
C2175      C2176   1.376       .  A
C2175      H2187   1.082       .  S
C2176      H2188   1.082       .  S
C2177      C2178   1.372       .  A
C2177      H2189   1.082       .  S
C2178      H2190   1.082       .  S
C2179      C2217   1.493       .  S
C2180      C2238   1.492       .  S
C2181      C2538   1.487       .  S
C2182      C2558   1.489       .  S
C2193      C2194   1.343       .  D
C2193      H2195   1.086       .  S
C2194      H2196   1.087       .  S
C2197      C2198   1.348       .  D
C2197      H2199   1.087       .  S
C2198      H2200   1.086       .  S
C2201      C2202   1.344       .  D
C2201      H2203   1.086       .  S
C2202      H2204   1.087       .  S
C2205      C2206   1.346       .  D
C2205      H2207   1.087       .  S
C2206      H2208   1.086       .  S
C2209      C2210   1.348       .  D
C2209      H2211   1.087       .  S
C2210      H2212   1.086       .  S
C2213      C2214   1.346       .  D
C2213      H2215   1.086       .  S
C2214      H2216   1.087       .  S
C2217      C2218   1.343       .  D
C2217      H2219   1.086       .  S
C2218      H2220   1.087       .  S
C2221      C2222   1.348       .  D
C2221      H2223   1.086       .  S
C2222      H2224   1.086       .  S
C2225      C2226   1.346       .  D
C2225      H2227   1.087       .  S
C2226      H2228   1.086       .  S
C2229      C2230   1.347       .  D
C2229      H2231   1.087       .  S
C2230      H2232   1.086       .  S
C2233      C2234   1.342       .  D
C2233      H2235   1.086       .  S
C2234      H2236   1.087       .  S
C2237      C2238   1.342       .  D
C2237      H2239   1.088       .  S
C2238      H2240   1.086       .  S
C2241      C2242   1.348       .  D
C2241      H2243   1.087       .  S
C2242      H2244   1.087       .  S
C2245      C2246   1.354       .  D
C2245      H2247   1.087       .  S
C2246      H2248   1.085       .  S
C2249      C2250   1.346       .  D
C2249      H2251   1.086       .  S
C2250      H2252   1.087       .  S
C2253      C2254   1.348       .  D
C2253      H2255   1.086       .  S
C2254      H2256   1.087       .  S
C2257      C2258   1.346       .  D
C2257      H2259   1.087       .  S
C2258      H2260   1.086       .  S
C2261      C2262   1.345       .  D
C2261      H2263   1.087       .  S
C2262      H2264   1.086       .  S
C2265      C2266   1.346       .  D
C2265      H2267   1.087       .  S
C2266      H2268   1.086       .  S
C2269      C2270   1.346       .  D
C2269      H2271   1.087       .  S
C2270      H2272   1.086       .  S
C2273      C2274   1.346       .  D
C2273      H2275   1.087       .  S
C2274      H2276   1.086       .  S
C2277      C2278   1.346       .  D
C2277      H2279   1.087       .  S
C2278      H2280   1.086       .  S
C2281      C2282   1.345       .  D
C2281      H2283   1.086       .  S
C2282      H2284   1.087       .  S
C2285      C2286   1.344       .  D
C2285      H2287   1.087       .  S
C2286      H2288   1.086       .  S
C2289      C2290   1.345       .  D
C2289      H2291   1.087       .  S
C2290      H2292   1.086       .  S
C2293      C2294   1.342       .  D
C2293      H2295   1.087       .  S
C2294      H2296   1.086       .  S
C2297      C2298   1.345       .  D
C2297      H2299   1.088       .  S
C2298      H2300   1.087       .  S
C2301      C2302   1.342       .  D
C2301      H2303   1.087       .  S
C2302      H2304   1.086       .  S
C2305      C2306   1.342       .  D
C2305      H2307   1.087       .  S
C2306      H2308   1.086       .  S
C2309      C2310   1.341       .  D
C2309      H2311   1.087       .  S
C2310      H2312   1.086       .  S
C2313      C2314   1.344       .  D
C2313      H2315   1.087       .  S
C2314      H2316   1.086       .  S
C2317      C2318   1.342       .  D
C2317      H2319   1.087       .  S
C2318      H2320   1.087       .  S
C2321      C2322   1.345       .  D
C2321      H2323   1.087       .  S
C2322      H2324   1.086       .  S
C2325      C2326   1.344       .  D
C2325      H2327   1.087       .  S
C2326      H2328   1.086       .  S
C2329      C2330   1.346       .  D
C2329      H2331   1.087       .  S
C2330      H2332   1.086       .  S
C2333      C2334   1.343       .  D
C2333      H2335   1.086       .  S
C2334      H2336   1.088       .  S
C2337      C2338   1.344       .  D
C2337      H2339   1.087       .  S
C2338      H2340   1.086       .  S
C2341      C2342   1.346       .  D
C2341      H2343   1.086       .  S
C2342      H2344   1.087       .  S
C2345      C2346   1.345       .  D
C2345      H2347   1.087       .  S
C2346      H2348   1.086       .  S
C2349      C2350   1.347       .  D
C2349      H2351   1.088       .  S
C2350      H2352   1.086       .  S
C2353      C2354   1.344       .  D
C2353      H2355   1.087       .  S
C2354      H2356   1.086       .  S
C2357      C2358   1.344       .  D
C2357      H2359   1.087       .  S
C2358      H2360   1.086       .  S
C2361      C2362   1.345       .  D
C2361      H2363   1.086       .  S
C2362      H2364   1.087       .  S
C2365      C2366   1.345       .  D
C2365      H2367   1.087       .  S
C2366      H2368   1.086       .  S
C2369      C2370   1.347       .  D
C2369      H2371   1.087       .  S
C2370      H2372   1.086       .  S
C2373      C2374   1.345       .  D
C2373      H2375   1.087       .  S
C2374      H2376   1.087       .  S
C2377      C2378   1.343       .  D
C2377      H2379   1.087       .  S
C2378      H2380   1.086       .  S
C2381      C2382   1.350       .  D
C2381      H2383   1.087       .  S
C2382      H2384   1.086       .  S
C2385      C2386   1.343       .  D
C2385      H2387   1.087       .  S
C2386      H2388   1.086       .  S
C2389      C2390   1.343       .  D
C2389      H2391   1.087       .  S
C2390      H2392   1.086       .  S
C2393      C2394   1.344       .  D
C2393      H2395   1.087       .  S
C2394      H2396   1.086       .  S
C2397      C2398   1.343       .  D
C2397      H2399   1.087       .  S
C2398      H2400   1.086       .  S
C2401      C2402   1.356       .  D
C2401      H2403   1.085       .  S
C2402      H2404   1.087       .  S
C2405      C2406   1.358       .  D
C2405      H2407   1.086       .  S
C2406      H2408   1.085       .  S
C2409      C2410   1.357       .  D
C2409      H2411   1.085       .  S
C2410      H2412   1.087       .  S
C2413      C2414   1.345       .  D
C2413      H2415   1.086       .  S
C2414      H2416   1.087       .  S
C2417      C2418   1.352       .  D
C2417      H2419   1.085       .  S
C2418      H2420   1.087       .  S
C2421      C2422   1.347       .  D
C2421      H2423   1.088       .  S
C2422      H2424   1.086       .  S
C2425      C2426   1.350       .  D
C2425      H2427   1.086       .  S
C2426      H2428   1.087       .  S
C2429      C2430   1.345       .  D
C2429      H2431   1.087       .  S
C2430      H2432   1.087       .  S
C2433      C2434   1.346       .  D
C2433      H2435   1.087       .  S
C2434      H2436   1.086       .  S
C2437      C2438   1.343       .  D
C2437      H2439   1.086       .  S
C2438      H2440   1.087       .  S
C2441      C2442   1.340       .  D
C2441      H2443   1.087       .  S
C2442      H2444   1.087       .  S
C2445      C2446   1.342       .  D
C2445      H2447   1.087       .  S
C2446      H2448   1.086       .  S
C2449      C2450   1.344       .  D
C2449      H2451   1.086       .  S
C2450      H2452   1.087       .  S
C2453      C2454   1.347       .  D
C2453      H2455   1.087       .  S
C2454      H2456   1.086       .  S
C2457      C2458   1.345       .  D
C2457      H2459   1.087       .  S
C2458      H2460   1.086       .  S
C2461      C2462   1.344       .  D
C2461      H2463   1.087       .  S
C2462      H2464   1.086       .  S
C2465      C2466   1.349       .  D
C2465      H2467   1.086       .  S
C2466      H2468   1.087       .  S
C2469      C2470   1.345       .  D
C2469      H2471   1.087       .  S
C2470      H2472   1.086       .  S
C2473      C2474   1.345       .  D
C2473      H2475   1.087       .  S
C2474      H2476   1.086       .  S
C2477      C2478   1.348       .  D
C2477      H2479   1.087       .  S
C2478      H2480   1.086       .  S
C2481      C2482   1.355       .  D
C2481      H2483   1.087       .  S
C2482      H2484   1.085       .  S
C2485      C2486   1.352       .  D
C2485      H2487   1.087       .  S
C2486      H2488   1.086       .  S
C2489      C2490   1.344       .  D
C2489      H2491   1.087       .  S
C2490      H2492   1.087       .  S
C2493      C2494   1.344       .  D
C2493      H2495   1.087       .  S
C2494      H2496   1.086       .  S
C2497      C2498   1.343       .  D
C2497      H2499   1.087       .  S
C2498      H2500   1.086       .  S
C2501      C2502   1.345       .  D
C2501      H2503   1.087       .  S
C2502      H2504   1.086       .  S
C2505      C2506   1.346       .  D
C2505      H2507   1.087       .  S
C2506      H2508   1.086       .  S
C2509      C2510   1.344       .  D
C2509      H2511   1.087       .  S
C2510      H2512   1.086       .  S
C2513      C2514   1.343       .  D
C2513      H2515   1.087       .  S
C2514      H2516   1.086       .  S
C2517      C2518   1.345       .  D
C2517      H2519   1.086       .  S
C2518      H2520   1.087       .  S
C2521      C2522   1.347       .  D
C2521      H2523   1.086       .  S
C2522      H2524   1.087       .  S
C2525      C2526   1.342       .  D
C2525      H2527   1.087       .  S
C2526      H2528   1.086       .  S
C2529      C2530   1.345       .  D
C2529      H2531   1.087       .  S
C2530      H2532   1.086       .  S
C2533      C2534   1.346       .  D
C2533      H2535   1.087       .  S
C2534      H2536   1.086       .  S
C2537      C2538   1.351       .  D
C2537      H2539   1.086       .  S
C2538      H2540   1.087       .  S
C2541      C2542   1.350       .  D
C2541      H2543   1.087       .  S
C2542      H2544   1.086       .  S
C2545      C2546   1.354       .  D
C2545      H2547   1.085       .  S
C2546      H2548   1.086       .  S
C2549      C2550   1.348       .  D
C2549      H2551   1.086       .  S
C2550      H2552   1.088       .  S
C2553      C2554   1.351       .  D
C2553      H2555   1.086       .  S
C2554      H2556   1.087       .  S
C2557      C2558   1.348       .  D
C2557      H2559   1.086       .  S
C2558      H2560   1.088       .  S
C2561      C2562   1.348       .  D
C2561      H2563   1.087       .  S
C2562      H2564   1.087       .  S
C2565      C2566   1.347       .  D
C2565      H2567   1.086       .  S
C2566      H2568   1.088       .  S
C2569      C2570   1.355       .  D
C2569      H2571   1.085       .  S
C2570      H2572   1.087       .  S
C2573      C2574   1.352       .  D
C2573      H2575   1.087       .  S
C2574      H2576   1.086       .  S
C2577      C2578   1.341       .  D
C2577      H2579   1.088       .  S
C2578      H2580   1.086       .  S
C2581      C2582   1.346       .  D
C2581      H2583   1.088       .  S
C2582      H2584   1.086       .  S
C2585      C2586   1.345       .  D
C2585      H2587   1.087       .  S
C2586      H2588   1.086       .  S
C2589      C2590   1.346       .  D
C2589      H2591   1.087       .  S
C2590      H2592   1.086       .  S
C2593      C2594   1.346       .  D
C2593      H2595   1.085       .  S
C2594      H2596   1.087       .  S
C2597      C2598   1.342       .  D
C2597      H2599   1.086       .  S
C2598      H2600   1.088       .  S
C2601      C2602   1.345       .  D
C2601      H2603   1.087       .  S
C2602      H2604   1.086       .  S
C2605      C2606   1.347       .  D
C2605      H2607   1.087       .  S
C2606      H2608   1.086       .  S
C2609      C2610   1.346       .  D
C2609      H2611   1.087       .  S
C2610      H2612   1.086       .  S
C2613      C2614   1.345       .  D
C2613      H2615   1.086       .  S
C2614      H2616   1.087       .  S
C2617      C2618   1.346       .  D
C2617      H2619   1.087       .  S
C2618      H2620   1.086       .  S
C2621      C2622   1.345       .  D
C2621      H2623   1.087       .  S
C2622      H2624   1.086       .  S
C2625      C2626   1.344       .  D
C2625      H2627   1.087       .  S
C2626      H2628   1.086       .  S
C2629      C2630   1.349       .  D
C2629      H2631   1.087       .  S
C2630      H2632   1.087       .  S
C2633      C2634   1.349       .  D
C2633      H2635   1.088       .  S
C2634      H2636   1.087       .  S
C2637      C2638   1.352       .  D
C2637      H2639   1.086       .  S
C2638      H2640   1.088       .  S
C2641      C2642   1.350       .  D
C2641      H2643   1.086       .  S
C2642      H2644   1.088       .  S
C2645      C2646   1.345       .  D
C2645      H2647   1.088       .  S
C2646      H2648   1.083       .  S
C2649      C2650   1.353       .  D
C2649      H2651   1.085       .  S
C2650      H2652   1.087       .  S
C2653      C2654   1.348       .  D
C2653      H2655   1.086       .  S
C2654      H2656   1.087       .  S
C2657      C2658   1.355       .  D
C2657      H2659   1.085       .  S
C2658      H2660   1.087       .  S
C2661      C2662   1.349       .  D
C2661      H2663   1.087       .  S
C2662      H2664   1.087       .  S
C2665      C2666   1.354       .  D
C2665      H2667   1.086       .  S
C2666      H2668   1.088       .  S
C2669      C2670   1.357       .  D
C2669      H2671   1.085       .  S
C2670      H2672   1.087       .  S
C2673      C2674   1.348       .  D
C2673      H2675   1.085       .  S
C2674      H2676   1.087       .  S
C2677      C2678   1.343       .  D
C2677      H2679   1.086       .  S
C2678      H2680   1.087       .  S
C2681      C2682   1.350       .  D
C2681      H2683   1.086       .  S
C2682      H2684   1.088       .  S
C2685      C2686   1.349       .  D
C2685      H2687   1.087       .  S
C2686      H2688   1.087       .  S
C2689      C2690   1.345       .  D
C2689      H2691   1.087       .  S
C2690      H2692   1.087       .  S
C2693      C2694   1.342       .  D
C2693      H2695   1.087       .  S
C2694      H2696   1.086       .  S
C2697      C2698   1.350       .  D
C2697      H2699   1.088       .  S
C2698      H2700   1.086       .  S
C2701      C2702   1.359       .  D
C2701      H2703   1.086       .  S
C2702      H2704   1.085       .  S
C2705      C2706   1.352       .  D
C2705      H2707   1.085       .  S
C2706      H2708   1.088       .  S
C2709      C2710   1.359       .  D
C2709      H2711   1.085       .  S
C2710      H2712   1.087       .  S
C2713      C2714   1.358       .  D
C2713      H2715   1.085       .  S
C2714      H2716   1.087       .  S
C2717      C2718   1.346       .  D
C2717      H2719   1.087       .  S
C2718      H2720   1.084       .  S
C2721      C2722   1.346       .  D
C2721      H2723   1.087       .  S
C2722      H2724   1.086       .  S
C2725      C2726   1.347       .  D
C2725      H2727   1.085       .  S
C2726      H2728   1.087       .  S
C2729      C2730   1.345       .  D
C2729      H2731   1.086       .  S
C2730      H2732   1.087       .  S
C2733      C2734   1.339       .  D
C2733      H2735   1.086       .  S
C2734      H2736   1.087       .  S
C2737      C2738   1.355       .  D
C2737      H2739   1.087       .  S
C2738      H2740   1.086       .  S
C2741      C2742   1.348       .  D
C2741      H2743   1.087       .  S
C2742      H2744   1.087       .  S
C2745      C2746   1.354       .  D
C2745      H2747   1.086       .  S
C2746      H2748   1.087       .  S
C2749      C2750   1.355       .  D
C2749      H2751   1.087       .  S
C2750      H2752   1.085       .  S
C2753      C2754   1.350       .  D
C2753      H2755   1.087       .  S
C2754      H2756   1.087       .  S
C2757      C2758   1.348       .  D
C2757      H2759   1.088       .  S
C2758      H2760   1.087       .  S
C2761      C2762   1.357       .  D
C2761      H2763   1.085       .  S
C2762      H2764   1.087       .  S
C2765      C2766   1.358       .  D
C2765      H2767   1.085       .  S
C2766      H2768   1.087       .  S
C2769      C2770   1.343       .  D
C2769      H2771   1.086       .  S
C2770      H2772   1.087       .  S
C2773      C2774   1.349       .  D
C2773      H2775   1.087       .  S
C2774      H2776   1.087       .  S
C2777      C2778   1.353       .  D
C2777      H2779   1.086       .  S
C2778      H2780   1.087       .  S
C2781      C2782   1.360       .  D
C2781      H2783   1.087       .  S
C2782      H2784   1.085       .  S
C2785      C2786   1.358       .  D
C2785      H2787   1.085       .  S
C2786      H2788   1.087       .  S
C2789      C2790   1.349       .  D
C2789      H2791   1.086       .  S
C2790      H2792   1.087       .  S
C2793      C2794   1.355       .  D
C2793      H2795   1.087       .  S
C2794      H2796   1.085       .  S
C2797      C2798   1.354       .  D
C2797      H2799   1.086       .  S
C2798      H2800   1.087       .  S
C2801      C2802   1.347       .  D
C2801      H2803   1.086       .  S
C2802      H2804   1.086       .  S
C2805      C2806   1.344       .  D
C2805      H2807   1.087       .  S
C2806      H2808   1.087       .  S
C2809      C2810   1.355       .  D
C2809      H2811   1.086       .  S
C2810      H2812   1.085       .  S
C2813      C2814   1.345       .  D
C2813      H2815   1.087       .  S
C2814      H2816   1.086       .  S
C2817      C2818   1.356       .  D
C2817      H2819   1.085       .  S
C2818      H2820   1.087       .  S
C2821      C2822   1.346       .  D
C2821      H2823   1.087       .  S
C2822      H2824   1.087       .  S
C2825      C2826   1.356       .  D
C2825      H2827   1.087       .  S
C2826      H2828   1.085       .  S
C2829      C2830   1.343       .  D
C2829      H2831   1.086       .  S
C2830      H2832   1.086       .  S
C2833      C2834   1.355       .  D
C2833      H2835   1.087       .  S
C2834      H2836   1.085       .  S
C2837      C2838   1.345       .  D
C2837      H2839   1.087       .  S
C2838      H2840   1.085       .  S
C2841      C2842   1.345       .  D
C2841      H2843   1.086       .  S
C2842      H2844   1.087       .  S
C2845      C2846   1.351       .  D
C2845      H2847   1.087       .  S
C2846      H2848   1.085       .  S
C2849      C2850   1.355       .  D
C2849      H2851   1.085       .  S
C2850      H2852   1.087       .  S
C2853      C2854   1.348       .  D
C2853      H2855   1.088       .  S
C2854      H2856   1.086       .  S
C2857      C2858   1.355       .  D
C2857      H2859   1.087       .  S
C2858      H2860   1.086       .  S
C2861      C2862   1.355       .  D
C2861      H2863   1.087       .  S
C2862      H2864   1.085       .  S
C2865      C2866   1.349       .  D
C2865      H2867   1.087       .  S
C2866      H2868   1.086       .  S
C2869      C2870   1.347       .  D
C2869      H2871   1.087       .  S
C2870      H2872   1.086       .  S
C2873      C2874   1.346       .  D
C2873      H2875   1.087       .  S
C2874      H2876   1.086       .  S
C2877      C2878   1.347       .  D
C2877      H2879   1.087       .  S
C2878      H2880   1.086       .  S
C2881      C2882   1.345       .  D
C2881      H2883   1.087       .  S
C2882      H2884   1.086       .  S
C2885      C2886   1.348       .  D
C2885      H2887   1.087       .  S
C2886      H2888   1.086       .  S
C2889      C2890   1.343       .  D
C2889      H2891   1.087       .  S
C2890      H2892   1.086       .  S
C2893      C2894   1.344       .  D
C2893      H2895   1.087       .  S
C2894      H2896   1.086       .  S
C2897      C2898   1.342       .  D
C2897      H2899   1.087       .  S
C2898      H2900   1.086       .  S
C2901      C2902   1.342       .  D
C2901      H2903   1.087       .  S
C2902      H2904   1.087       .  S
C2905      C2906   1.343       .  D
C2905      H2907   1.087       .  S
C2906      H2908   1.086       .  S
C2909      C2910   1.344       .  D
C2909      H2911   1.087       .  S
C2910      H2912   1.086       .  S
C2913      C2914   1.349       .  D
C2913      H2915   1.087       .  S
C2914      H2916   1.087       .  S
C2917      C2918   1.353       .  D
C2917      H2919   1.085       .  S
C2918      H2920   1.087       .  S
C2921      C2922   1.346       .  D
C2921      H2923   1.087       .  S
C2922      H2924   1.086       .  S
C2925      C2926   1.350       .  D
C2925      H2927   1.086       .  S
C2926      H2928   1.088       .  S
C2929      C2930   1.352       .  D
C2929      H2931   1.087       .  S
C2930      H2932   1.085       .  S
C2933      C2934   1.355       .  D
C2933      H2935   1.086       .  S
C2934      H2936   1.087       .  S
C2937      C2938   1.346       .  D
C2937      H2939   1.086       .  S
C2938      H2940   1.087       .  S
C2941      C2942   1.356       .  D
C2941      H2943   1.086       .  S
C2942      H2944   1.087       .  S
C2945      C2946   1.349       .  D
C2945      H2947   1.087       .  S
C2946      H2948   1.087       .  S
C2949      C2950   1.347       .  D
C2949      H2951   1.087       .  S
C2950      H2952   1.087       .  S
C2953      C2954   1.358       .  D
C2953      H2955   1.085       .  S
C2954      H2956   1.087       .  S
C2957      C2958   1.357       .  D
C2957      H2959   1.085       .  S
C2958      H2960   1.087       .  S
