geometry optimzed in LAMMPS
_audit_creation_date              2020-11-30 
_audit_creation_method            'lammps2cif' 
_symmetry_space_group_name_H-M    'P1' 
_symmetry_Int_Tables_number       1 
_symmetry_cell_setting            triclinic 
loop_ 
_symmetry_equiv_pos_as_xyz 
  x,y,z 
_cell_length_a                    41.43761963 
_cell_length_b                    26.1561247230618 
_cell_length_c                    40.47131591494125 
_cell_angle_alpha                 91.18573541184122 
_cell_angle_beta                  116.68781123079623 
_cell_angle_gamma                 89.0176348061948 
loop_ 
_atom_site_label 
_atom_site_type_symbol 
_atom_site_fract_x 
_atom_site_fract_y 
_atom_site_fract_z 
_atom_site_charge 
N1          N  0.51109733  0.51460288  0.18376857    -0.02700
C2          C  0.50552190  0.55712227  0.16236517    -0.00100
C3          C  0.50636306  0.54467371  0.12947604    -0.23000
C4          C  0.50937500  0.49304320  0.12831453    -0.23200
C5          C  0.51107953  0.47507417  0.16089346    -0.00200
H6          H  0.49954333  0.56968839  0.10623341     0.13600
H7          H  0.50559792  0.47063639  0.10408385     0.13600
N8          N  0.53600133  0.51475580  0.22237596    -0.02700
C9          C  0.55946770  0.55453649  0.23842750    -0.00100
C10         C  0.59367321  0.53632459  0.26144533    -0.23000
C11         C  0.59158478  0.48467734  0.26168879    -0.23200
C12         C  0.55607958  0.47220026  0.23937995    -0.00200
H13         H  0.61645731  0.55837511  0.28065341     0.13600
H14         H  0.61243400  0.45965496  0.28077370     0.13600
O15         O  0.56216529  0.87231405  0.35554804    -0.57000
C16         C  0.55734184  0.72235956  0.32653029     0.75600
O17         O  0.63889181  0.75835367  0.44196105    -0.58200
C18         C  0.57832988  0.90068477  0.38386118     0.75600
C19         C  0.52990684  0.78010979  0.42252469     0.78000
Cd20       Cd  0.58033276  0.79094877  0.39045934     1.37500
O21         O  0.56447221  0.76881982  0.32503075    -0.57000
O22         O  0.52045966  0.79575342  0.39011130    -0.55800
C23         C  0.65885973  0.77304587  0.42778339     0.78000
O24         O  0.56303616  0.76791295  0.44034715    -0.58200
O25         O  0.55973330  0.70781719  0.35718604    -0.56600
O26         O  0.59340171  0.87802046  0.41438976    -0.56600
O27         O  0.64245015  0.79421804  0.39674458    -0.55800
O28         O  0.89607879  0.64977471  0.04973386    -0.57000
C29         C  0.93379099  0.79660666  0.08111986     0.75600
O30         O  0.91639762  0.79054915  0.48445327    -0.58200
C31         C  0.89658576  0.62768662  0.53244680     0.75600
C32         C  0.81628180  0.75431684  0.49053319     0.78000
Cd33       Cd  0.89443323  0.73657931  0.52102048     1.37500
O34         O  0.94070227  0.74935908  0.08084217    -0.57000
O35         O  0.83111207  0.73642270  0.02103340    -0.55800
C36         C  0.92799119  0.75335130  0.47221083     0.78000
O37         O  0.83425867  0.76558082  0.47340130    -0.58200
O38         O  0.90520280  0.81263052  0.05435490    -0.56600
O39         O  0.88105782  0.64812571  0.50110083    -0.56600
O40         O  0.94158469  0.71811117  0.00389277    -0.55800
O41         O  0.56161574  0.15031433  0.34920864    -0.57000
C42         C  0.55779865  0.30039634  0.32234900     0.75600
O43         O  0.56814448  0.25672098  0.43742758    -0.58200
C44         C  0.57814844  0.12214030  0.37699185     0.75600
C45         C  0.66024498  0.24973737  0.42467449     0.78000
Cd46       Cd  0.58193663  0.23214135  0.38524631     1.37500
O47         O  0.56465822  0.25370375  0.31948780    -0.57000
O48         O  0.64544037  0.22396004  0.39488718    -0.55800
C49         C  0.53512281  0.24462536  0.42154452     0.78000
O50         O  0.63865621  0.26861321  0.43606183    -0.58200
O51         O  0.56083251  0.31464737  0.35369249    -0.56600
O52         O  0.59574081  0.14534152  0.40747870    -0.56600
O53         O  0.52335053  0.22918382  0.38833788    -0.55800
O54         O  0.89253077  0.37299956  0.05059586    -0.57000
C55         C  0.91926992  0.22188996  0.07583279     0.75600
O56         O  0.83743787  0.25844085  0.47986056    -0.58200
C57         C  0.89860575  0.40648842  0.53611846     0.75600
C58         C  0.93930262  0.27939104  0.48751451     0.78000
Cd59       Cd  0.89524048  0.29579015  0.52699473     1.37500
O60         O  0.92137338  0.26985058  0.08093938    -0.57000
O61         O  0.94026384  0.29745866  0.01123052    -0.55800
C62         C  0.81763956  0.27357829  0.49457255     0.78000
O63         O  0.90512119  0.28048406  0.47075715    -0.58200
O64         O  0.89867553  0.20655384  0.04327988    -0.56600
O65         O  0.88086294  0.38422308  0.50527312    -0.56600
O66         O  0.82266664  0.29400816  0.01436029    -0.55800
N67         N  0.01278239  0.01172262  0.16549465    -0.02700
C68         C  0.01456794  0.97407085  0.14204170    -0.00100
C69         C  0.01345105  0.99503466  0.11046388    -0.23000
C70         C  0.00962830  0.04619695  0.11301831    -0.23200
C71         C  0.00692178  0.05554059  0.14531979    -0.00200
H72         H  0.01022938  0.97490737  0.08557405     0.13600
H73         H  0.00282292  0.07258144  0.09051888     0.13600
N74         N  0.03610848  0.01074059  0.20462663    -0.02700
C75         C  0.05615203  0.05249894  0.22373293    -0.00100
C76         C  0.09106210  0.03825319  0.24732981    -0.23000
C77         C  0.09263670  0.98659848  0.24592531    -0.23200
C78         C  0.05885982  0.96986231  0.22074676    -0.00200
H79         H  0.11152998  0.06224690  0.26802694     0.13600
H80         H  0.11454391  0.96369839  0.26563184     0.13600
O81         O  0.42732919  0.77273088  0.09410702    -0.57000
C82         C  0.38058642  0.89893828  0.53059444     0.75600
O83         O  0.39995667  0.76588947  0.47394590    -0.58200
C84         C  0.42201799  0.72505374  0.09155201     0.75600
C85         C  0.30327311  0.77051197  0.48346488     0.78000
Cd86       Cd  0.38121108  0.78880236  0.52342433     1.37500
O87         O  0.39292651  0.87237438  0.06438248    -0.57000
O88         O  0.31804280  0.79286512  0.51472249    -0.55800
C89         C  0.43262007  0.77950412  0.49205980     0.78000
O90         O  0.32491018  0.75458397  0.47118029    -0.58200
O91         O  0.37417382  0.87563927  0.50061005    -0.56600
O92         O  0.39892408  0.70869779  0.06026272    -0.56600
O93         O  0.44120150  0.79587667  0.52446272    -0.55800
O94         O  0.05275832  0.65206173  0.33383967    -0.57000
C95         C  0.04824748  0.80360147  0.30102320     0.75600
O96         O  0.04683414  0.76970671  0.41012881    -0.58200
C97         C  0.06817192  0.62758398  0.36380759     0.75600
C98         C  0.14526024  0.75563953  0.40586563     0.78000
Cd99       Cd  0.06757604  0.73824387  0.36439553     1.37500
O100        O  0.05364608  0.75609387  0.29904022    -0.57000
O101        O  0.13098527  0.73031758  0.37585041    -0.55800
C102        C  0.01475482  0.75351719  0.39262580     0.78000
O103        O  0.12317428  0.77463434  0.41659338    -0.58200
O104        O  0.05047226  0.82019796  0.33152699    -0.56600
O105        O  0.08183227  0.65457981  0.39299040    -0.56600
O106        O  0.00674066  0.73358553  0.36119341    -0.55800
O107        O  0.39524101  0.15067456  0.06576237    -0.57000
C108        C  0.43291934  0.29752114  0.09904106     0.75600
O109        O  0.40400887  0.25588673  0.47475116    -0.58200
C110        C  0.38488676  0.12343375  0.03653359     0.75600
C111        C  0.31420002  0.25442362  0.49319319     0.78000
Cd112      Cd  0.39127798  0.23308218  0.03443423     1.37500
O113        O  0.44323891  0.25267057  0.09600859    -0.57000
O114        O  0.32931874  0.23230905  0.02971982    -0.55800
C115        C  0.43703086  0.24279440  0.48967004     0.78000
O116        O  0.33500010  0.27214810  0.48101257    -0.58200
O117        O  0.40230470  0.31063906  0.07412344    -0.56600
O118        O  0.38505234  0.14419336  0.50146285    -0.56600
O119        O  0.44261832  0.21678603  0.02072590    -0.55800
O120        O  0.06417789  0.27073821  0.31070718    -0.57000
C121        C  0.07116814  0.40468960  0.36629862     0.75600
O122        O  0.06184987  0.26817088  0.42615894    -0.58200
C123        C  0.05737496  0.22421273  0.31232547     0.75600
C124        C  0.15678192  0.27856982  0.41857728     0.78000
Cd125      Cd  0.07816210  0.29441666  0.37608261     1.37500
O126        O  0.05681946  0.37431117  0.33889638    -0.57000
O127        O  0.14274949  0.30694578  0.39060656    -0.55800
C128        C  0.02892762  0.28170374  0.40969283     0.78000
O129        O  0.13444918  0.25701586  0.42702886    -0.58200
O130        O  0.08800821  0.38369704  0.39743859    -0.56600
O131        O  0.05916656  0.21056969  0.34292667    -0.56600
O132        O  0.01911593  0.29935395  0.37775616    -0.55800
C133        C  0.21888682  0.30993912  0.43591807    -0.05000
C134        C  0.19706561  0.27211448  0.43979187     0.01000
C135        C  0.21428736  0.22943837  0.46249054    -0.07600
C136        C  0.25240351  0.22613718  0.47970941    -0.05000
C137        C  0.27410668  0.26322250  0.47493349     0.00900
C138        C  0.25698901  0.30648684  0.45303380    -0.07500
C139        C  0.27852614  0.34933664  0.44784183     0.62900
H140        H  0.20570659  0.34257776  0.41888182     0.13600
H141        H  0.26584385  0.21247144  0.01477172     0.13600
C142        C  0.19337085  0.21109642  0.98959867     0.63100
F143        F  0.25683522  0.39074844  0.43005331    -0.22100
F144        F  0.29500702  0.33182441  0.42663895    -0.19400
F145        F  0.30447536  0.36643866  0.48188871    -0.19100
F146        F  0.17029676  0.18027864  0.96073188    -0.19100
F147        F  0.17371214  0.24121791  0.00269638    -0.19500
F148        F  0.21562207  0.17950603  0.01803587    -0.22100
C149        C  0.09612232  0.48920757  0.39296892    -0.05000
C150        C  0.06967250  0.46167509  0.36322745     0.01000
C151        C  0.04319860  0.48922043  0.33296603    -0.07600
C152        C  0.04383150  0.54321669  0.33444499    -0.05000
C153        C  0.06991248  0.57056064  0.36464907     0.00900
C154        C  0.09707177  0.54292342  0.39428660    -0.07500
C155        C  0.12758375  0.56920675  0.42710386     0.62900
H156        H  0.11649402  0.46800773  0.41563755     0.13600
H157        H  0.02355651  0.56471946  0.31188684     0.13600
C158        C  0.01410360  0.46247864  0.29938921     0.63100
F159        F  0.15329053  0.53466434  0.44982362    -0.22100
F160        F  0.11391848  0.59503516  0.44830245    -0.19400
F161        F  0.14490431  0.60312198  0.41474387    -0.19100
F162        F  0.99459640  0.43041324  0.31032801    -0.19100
F163        F  0.02986946  0.43441597  0.28105997    -0.19500
F164        F  0.99005085  0.49685515  0.27455469    -0.22100
C165        C  0.36375189  0.98152397  0.49846773    -0.05000
C166        C  0.38052213  0.95599969  0.53236496     0.01000
C167        C  0.40679761  0.98760698  0.07196703    -0.07600
C168        C  0.40516606  0.04140885  0.06975624    -0.05000
C169        C  0.38336846  0.06414503  0.52906275     0.00900
C170        C  0.36444348  0.03494331  0.49605984    -0.07500
C171        C  0.34450622  0.05933041  0.45825081     0.62900
H172        H  0.35016045  0.95899670  0.47333750     0.13600
H173        H  0.42255325  0.06425157  0.09355510     0.13600
C174        C  0.43317344  0.96259236  0.10766668     0.63100
F175        F  0.32336891  0.02441661  0.43131466    -0.22100
F176        F  0.36909104  0.07898965  0.44755876    -0.19400
F177        F  0.32184671  0.09796348  0.45954902    -0.19100
F178        F  0.45575469  0.92918144  0.10076894    -0.19100
F179        F  0.41432314  0.93618974  0.12259347    -0.19500
F180        F  0.45460596  0.99820475  0.13378535    -0.22100
C181        C  0.24185991  0.79229535  0.47675890    -0.05000
C182        C  0.26288684  0.76514054  0.46279115     0.01000
C183        C  0.24472408  0.73532924  0.42986810    -0.07600
C184        C  0.20663445  0.73380845  0.41278019    -0.05000
C185        C  0.18560452  0.76104030  0.42668623     0.00900
C186        C  0.20371612  0.79126309  0.45937876    -0.07500
C187        C  0.18341843  0.82302521  0.47600833     0.62900
H188        H  0.25568848  0.81522788  0.50162891     0.13600
H189        H  0.19284034  0.71091128  0.38789045     0.13600
C190        C  0.26485215  0.70492708  0.41238213     0.63100
F191        F  0.20651189  0.85067438  0.50696591    -0.22100
F192        F  0.16347429  0.79140224  0.48668121    -0.19400
F193        F  0.16073671  0.85755788  0.45028492    -0.19100
F194        F  0.28861336  0.67083279  0.43763100    -0.19100
F195        F  0.28356868  0.73787737  0.40106205    -0.19500
F196        F  0.24172128  0.67693361  0.38162530    -0.22100
C197        C  0.06129906  0.14576537  0.23337185    -0.05000
C198        C  0.04305806  0.10113340  0.23394445     0.01000
C199        C  0.02488570  0.10119455  0.25650675    -0.07600
C200        C  0.02782027  0.14415662  0.27932682    -0.05000
C201        C  0.04877091  0.18672489  0.28107968     0.00900
C202        C  0.06417054  0.18884910  0.25607192    -0.07500
C203        C  0.08576146  0.23456444  0.25496209     0.62900
H204        H  0.07648814  0.14457325  0.21748359     0.13600
H205        H  0.01563946  0.14335466  0.29803073     0.13600
C206        C  0.00569977  0.05425348  0.25970811     0.63100
F207        F  0.09903934  0.22781060  0.22927796    -0.22100
F208        F  0.11488076  0.24224691  0.28923768    -0.19400
F209        F  0.06386781  0.27768647  0.24528005    -0.19100
F210        F  0.03052703  0.01530638  0.27564587    -0.19100
F211        F  0.98016502  0.03927156  0.22501826    -0.19500
F212        F  0.98813841  0.06329145  0.28141778    -0.22100
C213        C  0.01837471  0.91588170  0.23507910    -0.05000
C214        C  0.04760851  0.91807493  0.22647116     0.01000
C215        C  0.07165715  0.87524084  0.23533706    -0.07600
C216        C  0.06854505  0.83607314  0.25690434    -0.05000
C217        C  0.04305438  0.83868626  0.27068227     0.00900
C218        C  0.01628079  0.87768203  0.25813032    -0.07500
C219        C  0.98638579  0.87994593  0.26999607     0.62900
H220        H  0.99930154  0.94731109  0.22709125     0.13600
H221        H  0.08835006  0.80522836  0.26568871     0.13600
C222        C  0.10280525  0.87034262  0.22540044     0.63100
F223        F  0.96058177  0.91664245  0.25084031    -0.22100
F224        F  0.00058263  0.89194007  0.30727593    -0.19400
F225        F  0.96946973  0.83307507  0.26333227    -0.19100
F226        F  0.13515082  0.87148417  0.25738809    -0.19100
F227        F  0.10300600  0.90874721  0.20271106    -0.19500
F228        F  0.10050993  0.82410165  0.20730671    -0.22100
C229        C  0.94769624  0.29546621  0.43166534    -0.05000
C230        C  0.96192484  0.27514117  0.46731287     0.01000
C231        C  0.99712476  0.25309557  0.48263337    -0.07600
C232        C  0.01744599  0.25514973  0.46247751    -0.05000
C233        C  0.00394050  0.27787917  0.42743414     0.00900
C234        C  0.96779118  0.29733135  0.41131344    -0.07500
C235        C  0.95004617  0.32065378  0.37304094     0.62900
H236        H  0.92066260  0.31152015  0.42015693     0.13600
H237        H  0.04464496  0.23964349  0.47455839     0.13600
C238        C  0.00651986  0.24549775  0.01819161     0.63100
F239        F  0.91469852  0.33576887  0.36292288    -0.24100
F240        F  0.94945542  0.28500332  0.34705040    -0.19400
F241        F  0.96885774  0.36346592  0.37233468    -0.19100
F242        F  0.98441102  0.20884562  0.02136351    -0.19100
F243        F  0.01039864  0.28583906  0.04224701    -0.19500
F244        F  0.04025001  0.22340921  0.02869824    -0.22100
C245        C  0.99881820  0.14812857  0.14708999    -0.05000
C246        C  0.98343050  0.09980121  0.14416665     0.01000
C247        C  0.94518046  0.09552785  0.12458827    -0.07600
C248        C  0.92459106  0.13824546  0.10542259    -0.05000
C249        C  0.94071813  0.18487141  0.10531120     0.00900
C250        C  0.97813663  0.19114157  0.12867297    -0.07500
C251        C  0.99694505  0.24149723  0.13153015     0.62900
H252        H  0.02789606  0.15041899  0.15963634     0.13600
H253        H  0.89585060  0.13439765  0.08790509     0.13600
C254        C  0.92628430  0.04484317  0.12025908     0.63100
F255        F  0.03347083  0.23882218  0.15549517    -0.22100
F256        F  0.98180647  0.27931322  0.14467426    -0.19400
F257        F  0.99329406  0.25480505  0.09715559    -0.19100
F258        F  0.88904986  0.05039315  0.10290694    -0.19100
F259        F  0.93595994  0.02457243  0.15463439    -0.19500
F260        F  0.93566728  0.01098258  0.09930568    -0.22100
C261        C  0.47430307  0.25791840  0.41857416    -0.05000
C262        C  0.51122776  0.24757922  0.44034662     0.01000
C263        C  0.52364323  0.23710646  0.47843375    -0.07600
C264        C  0.49851060  0.23725687  0.49307617    -0.05000
C265        C  0.46136051  0.24691007  0.47127700     0.00900
C266        C  0.44906525  0.25799815  0.43317293    -0.07500
C267        C  0.40958218  0.26903978  0.40750504     0.62900
H268        H  0.46525910  0.26576316  0.38957776     0.13600
H269        H  0.50351853  0.23495267  0.02433853     0.13600
C270        C  0.55777052  0.23295289  0.00455151     0.63100
F271        F  0.40383912  0.27794308  0.37166272    -0.22100
F272        F  0.39823209  0.31216883  0.41985671    -0.19400
F273        F  0.38877754  0.22763447  0.40640917    -0.19100
F274        F  0.57774887  0.27535556  0.00568080    -0.19100
F275        F  0.57411555  0.18365192  0.48825406    -0.19500
F276        F  0.56449731  0.22276128  0.04053235    -0.22100
C277        C  0.75646485  0.29779819  0.48779631    -0.05000
C278        C  0.77756320  0.26484986  0.47724355     0.01000
C279        C  0.75981823  0.22565651  0.45056610    -0.07600
C280        C  0.72183301  0.22214509  0.43493163    -0.05000
C281        C  0.70058592  0.25603789  0.44461636     0.00900
C282        C  0.71839524  0.29446887  0.47197119    -0.07500
C283        C  0.69766693  0.33290323  0.48397918     0.62900
H284        H  0.75954533  0.32948055  0.99655562     0.13600
H285        H  0.70826020  0.19260676  0.41441145     0.13600
C286        C  0.78046389  0.18722514  0.43843105     0.63100
F287        F  0.71051235  0.37286579  0.99799080    -0.22100
F288        F  0.68007476  0.30786090  0.50090285    -0.19400
F289        F  0.67277139  0.35889020  0.45352397    -0.19100
F290        F  0.80764053  0.16439354  0.46904818    -0.19100
F291        F  0.79520268  0.21172901  0.41849661    -0.19500
F292        F  0.75839821  0.14874807  0.41608839    -0.22100
C293        C  0.94088250  0.72238001  0.42121395    -0.05000
C294        C  0.94726504  0.75931988  0.44906377     0.01000
C295        C  0.97417901  0.79667781  0.45636939    -0.07600
C296        C  0.99426387  0.79470863  0.43595083    -0.05000
C297        C  0.98877539  0.75658671  0.40895160     0.00900
C298        C  0.96107740  0.72004855  0.40098291    -0.07500
C299        C  0.95360344  0.67717595  0.37257252     0.62900
H300        H  0.92020824  0.69427650  0.41599985     0.13600
H301        H  0.01527108  0.82243116  0.44166177     0.13600
C302        C  0.00939027  0.78285892  0.01989154     0.63100
F303        F  0.92741101  0.64408545  0.37151742    -0.22100
F304        F  0.98476356  0.64877161  0.38116722    -0.19400
F305        F  0.94147087  0.69755926  0.33771061    -0.19100
F306        F  0.00958084  0.74086647  0.04013442    -0.19100
F307        F  0.98965270  0.82210016  0.02570921    -0.19500
F308        F  0.04469368  0.79906863  0.03287368    -0.22100
C309        C  0.90523274  0.54068261  0.05372063    -0.05000
C310        C  0.89585960  0.57148358  0.53622352     0.01000
C311        C  0.86465405  0.54255039  0.51418054    -0.07600
C312        C  0.86703179  0.48898643  0.51548764    -0.05000
C313        C  0.89878522  0.46328324  0.53925854     0.00900
C314        C  0.90540383  0.48706068  0.05629264    -0.07500
C315        C  0.93160225  0.46195333  0.09206020     0.62900
H316        H  0.92354474  0.56327406  0.07719002     0.13600
H317        H  0.84374086  0.46656533  0.49759014     0.13600
C318        C  0.82855213  0.56768682  0.48976546     0.63100
F319        F  0.99069341  0.50212013  0.61016075    -0.22100
F320        F  0.97670199  0.43340592  0.57255345    -0.19400
F321        F  0.91263464  0.43586049  0.10701005    -0.19100
F322        F  0.82887062  0.58545424  0.45797916    -0.19100
F323        F  0.81245586  0.60104701  0.96189266    -0.19500
F324        F  0.80034334  0.53362012  0.47951416    -0.22100
C325        C  0.99306170  0.83769045  0.10751513    -0.05000
C326        C  0.95986705  0.83265245  0.10828310     0.01000
C327        C  0.95057578  0.86729934  0.12987964    -0.07600
C328        C  0.97253779  0.91043140  0.14570788    -0.05000
C329        C  0.00307119  0.91979828  0.14010613     0.00900
C330        C  0.01483154  0.88081056  0.12270168    -0.07500
C331        C  0.04833657  0.88407036  0.11653216     0.62900
H332        H  0.00074913  0.80959109  0.09225879     0.13600
H333        H  0.96406492  0.93926888  0.15964623     0.13600
C334        C  0.91764981  0.85834779  0.13600086     0.63100
F335        F  0.03808170  0.88754915  0.07908397    -0.22100
F336        F  0.06902727  0.84022897  0.12948938    -0.19400
F337        F  0.06976862  0.92547497  0.13421698    -0.19100
F338        F  0.91990090  0.81000010  0.15017275    -0.19100
F339        F  0.88656205  0.86196233  0.10296604    -0.19500
F340        F  0.91518778  0.89358968  0.16077316    -0.22100
C341        C  0.51878668  0.77948046  0.47813901    -0.05000
C342        C  0.50419031  0.77782049  0.43934457     0.01000
C343        C  0.46598796  0.77483396  0.41821771    -0.07600
C344        C  0.44415909  0.77497297  0.43679081    -0.05000
C345        C  0.45866553  0.77782541  0.47553849     0.00900
C346        C  0.49694354  0.77956582  0.49673318    -0.07500
C347        C  0.51737322  0.76693479  0.03745673     0.62900
H348        H  0.54784278  0.78165907  0.49403205     0.13600
H349        H  0.41508510  0.77362458  0.42083113     0.13600
C350        C  0.44788588  0.77027260  0.37625971     0.63100
F351        F  0.55402287  0.75702930  0.05120070    -0.22100
F352        F  0.50286651  0.72955322  0.05035455    -0.19400
F353        F  0.51319851  0.81425566  0.05099187    -0.19100
F354        F  0.46256117  0.72922335  0.36540082    -0.19100
F355        F  0.45264597  0.81473557  0.36114320    -0.19500
F356        F  0.41107120  0.76235117  0.36195084    -0.22100
C357        C  0.55194498  0.98174444  0.35101265    -0.05000
C358        C  0.57958845  0.95720645  0.38141349     0.01000
C359        C  0.60815010  0.98690178  0.40805441    -0.07600
C360        C  0.60640163  0.04022929  0.40465304    -0.05000
C361        C  0.57803168  0.06518273  0.37526880     0.00900
C362        C  0.55081995  0.03534285  0.34706552    -0.07500
C363        C  0.52069686  0.05931117  0.31310195     0.62900
H364        H  0.53089981  0.95845883  0.33038293     0.13600
H365        H  0.62756945  0.06315227  0.42545236     0.13600
C366        C  0.64101992  0.96307659  0.43965050     0.63100
F367        F  0.49668878  0.02314918  0.29001946    -0.22100
F368        F  0.53530501  0.08379792  0.29302315    -0.19400
F369        F  0.50140676  0.09410718  0.32361383    -0.19100
F370        F  0.65566862  0.92515003  0.42600514    -0.19100
F371        F  0.63122953  0.94265229  0.46505444    -0.19500
F372        F  0.66782011  0.99860195  0.45818996    -0.22100
C373        C  0.71545643  0.76031826  0.42166331    -0.05000
C374        C  0.69911133  0.76607831  0.44537296     0.01000
C375        C  0.72155639  0.76747646  0.48416931    -0.07600
C376        C  0.75949390  0.76419911  0.49754653    -0.05000
C377        C  0.77585788  0.75902000  0.47372902     0.00900
C378        C  0.75320478  0.75570423  0.43495160    -0.07500
C379        C  0.76828693  0.74529778  0.40742437     0.62900
H380        H  0.69811556  0.75888182  0.39215348     0.13600
H381        H  0.77219252  0.75527387  0.02389937     0.13600
C382        C  0.70580566  0.77328469  0.51144891     0.63100
F383        F  0.74121845  0.73726265  0.37188819    -0.22100
F384        F  0.78987664  0.70183168  0.41743054    -0.19400
F385        F  0.78828059  0.78658658  0.40657970    -0.19100
F386        F  0.68012297  0.72027410  0.00326794    -0.19100
F387        F  0.68397097  0.81643801  0.50340523    -0.19500
F388        F  0.72753964  0.76411218  0.04427215    -0.22100
C389        C  0.55885635  0.37838093  0.24413531    -0.05000
C390        C  0.54281546  0.42429882  0.24835366     0.01000
C391        C  0.52616484  0.42515406  0.27225885    -0.07600
C392        C  0.52829822  0.38135651  0.29280119    -0.05000
C393        C  0.54803907  0.33768824  0.29180875     0.00900
C394        C  0.56202438  0.33496421  0.26555698    -0.07500
C395        C  0.58276635  0.28840855  0.26202106     0.62900
H396        H  0.57244173  0.37874383  0.22696549     0.13600
H397        H  0.51710126  0.38248487  0.31227942     0.13600
C398        C  0.50974862  0.47366813  0.27941533     0.63100
F399        F  0.59477529  0.29471016  0.23550591    -0.22100
F400        F  0.56061033  0.24611999  0.25184193    -0.19400
F401        F  0.61270664  0.27956528  0.29537982    -0.19100
F402        F  0.48319831  0.49147208  0.24636066    -0.19100
F403        F  0.53633904  0.50998371  0.29585151    -0.19500
F404        F  0.49412657  0.46590604  0.30277333    -0.22100
C405        C  0.52196769  0.61053864  0.25777013    -0.05000
C406        C  0.54936263  0.60678084  0.24640991     0.01000
C407        C  0.57347101  0.64846181  0.25442537    -0.07600
C408        C  0.57304323  0.68765584  0.27845684    -0.05000
C409        C  0.54988781  0.68624739  0.29516878     0.00900
C410        C  0.52256666  0.64861945  0.28327894    -0.07500
C411        C  0.49485666  0.64768873  0.29814171     0.62900
H412        H  0.50237398  0.58034697  0.24978640     0.13600
H413        H  0.59298597  0.71770275  0.28638697     0.13600
C414        C  0.60157213  0.65194349  0.24018070     0.63100
F415        F  0.46820512  0.61198407  0.27956721    -0.22100
F416        F  0.47846075  0.69521827  0.29404206    -0.19400
F417        F  0.51144702  0.63521781  0.33515434    -0.19100
F418        F  0.59789456  0.61410978  0.21437574    -0.19100
F419        F  0.63574524  0.64847214  0.26953978    -0.19500
F420        F  0.59828829  0.69863975  0.22353511    -0.22100
C421        C  0.46694219  0.41409068  0.16291001    -0.05000
C422        C  0.49980597  0.42145033  0.16148190     0.01000
C423        C  0.51414449  0.38070040  0.14827007    -0.07600
C424        C  0.49255771  0.33792517  0.13144846    -0.05000
C425        C  0.45712865  0.33473413  0.12715548     0.00900
C426        C  0.44487398  0.37156809  0.14527656    -0.07500
C427        C  0.40849850  0.36653988  0.14539913     0.62900
H428        H  0.45676303  0.44449228  0.17423062     0.13600
H429        H  0.50244838  0.30890098  0.11864497     0.13600
C430        C  0.55083240  0.38256840  0.14851344     0.63100
F431        F  0.40414207  0.40223564  0.16884783    -0.22100
F432        F  0.40573483  0.31834128  0.15729834    -0.19400
F433        F  0.38084249  0.37379643  0.11029094    -0.19100
F434        F  0.57141214  0.42320088  0.16930253    -0.19100
F435        F  0.54623649  0.38648175  0.11263350    -0.19500
F436        F  0.56978888  0.33798588  0.16340294    -0.22100
C437        C  0.42604422  0.64444774  0.12466715    -0.05000
C438        C  0.44299066  0.68920837  0.12223663     0.01000
C439        C  0.48067716  0.69443052  0.14499293    -0.07600
C440        C  0.50084202  0.65100577  0.16353373    -0.05000
C441        C  0.48437928  0.60392626  0.16202058     0.00900
C442        C  0.44607910  0.60213042  0.14508177    -0.07500
C443        C  0.42646941  0.55399303  0.14540819     0.62900
H444        H  0.39705931  0.64150966  0.10833802     0.13600
H445        H  0.52998647  0.65204797  0.17587748     0.13600
C446        C  0.50002283  0.74424205  0.14767900     0.63100
F447        F  0.38969802  0.56252198  0.13204511    -0.22100
F448        F  0.43959670  0.53715639  0.18128013    -0.19400
F449        F  0.43154825  0.51646184  0.12363092    -0.19100
F450        F  0.48477110  0.78291907  0.16002712    -0.19100
F451        F  0.49731206  0.75663507  0.11350143    -0.19500
F452        F  0.53628487  0.74123019  0.17227530    -0.22100
N453        N  0.50413119  0.51032963  0.67930132    -0.02700
C454        C  0.49860474  0.55262842  0.65771958    -0.00100
C455        C  0.50253977  0.54059469  0.62637726    -0.23000
C456        C  0.50752013  0.48919879  0.62621824    -0.23200
C457        C  0.50708220  0.47103762  0.65780634    -0.00200
H458        H  0.49646311  0.56531723  0.60313982     0.13600
H459        H  0.50597383  0.46678816  0.60277864     0.13600
N460        N  0.52731837  0.51153097  0.71834809    -0.02700
C461        C  0.55104993  0.55093267  0.73452183    -0.00100
C462        C  0.58467051  0.53264054  0.75906998    -0.23000
C463        C  0.58190704  0.48125287  0.76026522    -0.23200
C464        C  0.54661275  0.46914096  0.73679555    -0.00200
H465        H  0.60737950  0.55484466  0.77826809     0.13600
H466        H  0.60206716  0.45631909  0.78021224     0.13600
O467        O  0.55312694  0.86942567  0.85301310    -0.57000
C468        C  0.55245481  0.72207429  0.81918227     0.75600
O469        O  0.63460738  0.75606696  0.93816861    -0.58200
C470        C  0.57006046  0.89742498  0.88135707     0.75600
C471        C  0.52789724  0.77004439  0.91905414     0.78000
Cd472      Cd  0.57626191  0.78695166  0.88549878     1.37500
O473        O  0.56358540  0.76704595  0.82014118    -0.57000
O474        O  0.51859630  0.79446247  0.88949466    -0.55800
C475        C  0.65476755  0.76937049  0.92388128     0.78000
O476        O  0.55979345  0.75186003  0.93321620    -0.58200
O477        O  0.55157694  0.70740323  0.84835263    -0.56600
O478        O  0.59006644  0.87419983  0.91068928    -0.56600
O479        O  0.63847841  0.78913176  0.89228422    -0.55800
O480        O  0.91265479  0.65777162  0.55983007    -0.57000
C481        C  0.93955277  0.80075762  0.58396195     0.75600
O482        O  0.90207470  0.77209421  0.96873470    -0.58200
C483        C  0.88599600  0.62252630  0.02055490     0.75600
C484        C  0.81249380  0.75007627  0.98783126     0.78000
Cd485      Cd  0.89042106  0.73182850  0.01823655     1.37500
O486        O  0.95112913  0.75931403  0.57633484    -0.57000
O487        O  0.83481868  0.73813208  0.52303427    -0.55800
C488        C  0.93218641  0.74961485  0.97791046     0.78000
O489        O  0.83047505  0.75852951  0.97020138    -0.58200
O490        O  0.90631092  0.81028677  0.56459802    -0.56600
O491        O  0.87939397  0.64603967  0.99122967    -0.56600
O492        O  0.92244208  0.70949417  0.48099960    -0.55800
O493        O  0.54971530  0.14733435  0.84815998    -0.57000
C494        C  0.54602596  0.29843679  0.81909816     0.75600
O495        O  0.56055044  0.25514960  0.93642652    -0.58200
C496        C  0.56566998  0.11952462  0.87627857     0.75600
C497        C  0.64872296  0.24915632  0.91884210     0.78000
Cd498      Cd  0.57084658  0.23048494  0.88244822     1.37500
O499        O  0.55047203  0.25098461  0.81570892    -0.57000
O500        O  0.63324950  0.22169503  0.88995988    -0.55800
C501        C  0.52686781  0.24755376  0.92108707     0.78000
O502        O  0.62796302  0.26903788  0.93090431    -0.58200
O503        O  0.55139293  0.31360691  0.85104193    -0.56600
O504        O  0.58354423  0.14317639  0.90650463    -0.56600
O505        O  0.51322724  0.23465140  0.88721789    -0.55800
O506        O  0.91496230  0.37752306  0.56341485    -0.57000
C507        C  0.92877206  0.22811847  0.58977412     0.75600
O508        O  0.82435933  0.25708963  0.96742179    -0.58200
C509        C  0.88207636  0.40135854  0.02262444     0.75600
C510        C  0.92914209  0.28293918  0.97800459     0.78000
Cd511      Cd  0.88281298  0.29180672  0.01499146     1.37500
O512        O  0.93140272  0.27621193  0.59368989    -0.57000
O513        O  0.95284013  0.28445412  0.52221315    -0.55800
C514        C  0.80553756  0.27143550  0.98346948     0.78000
O515        O  0.89589509  0.27184554  0.96099964    -0.58200
O516        O  0.90851500  0.21159345  0.55745968    -0.56600
O517        O  0.87158621  0.37852428  0.99172088    -0.56600
O518        O  0.83388736  0.29816412  0.52480247    -0.55800
N519        N  0.01813178  0.01573618  0.67418905    -0.02700
C520        C  0.01827256  0.98067903  0.64838006    -0.00100
C521        C  0.01656517  0.00489520  0.61763635    -0.23000
C522        C  0.01480466  0.05572056  0.62345353    -0.23200
C523        C  0.01365997  0.06184457  0.65684520    -0.00200
H524        H  0.01227279  0.98739355  0.59155254     0.13600
H525        H  0.00848855  0.08455685  0.60255113     0.13600
N526        N  0.04060209  0.00951030  0.71315502    -0.02700
C527        C  0.06154716  0.04843050  0.73543165    -0.00100
C528        C  0.09585943  0.03133852  0.75847700    -0.23000
C529        C  0.09624869  0.98011906  0.75294542    -0.23200
C530        C  0.06203580  0.96668348  0.72659938    -0.00200
H531        H  0.11679752  0.05273579  0.78077200     0.13600
H532        H  0.11738832  0.95458373  0.77094208     0.13600
O533        O  0.41491813  0.76775599  0.59027048    -0.57000
C534        C  0.38637258  0.90170662  0.03757779     0.75600
O535        O  0.40565313  0.75171154  0.98138476    -0.58200
C536        C  0.41321248  0.71973384  0.58558692     0.75600
C537        C  0.30983961  0.77684061  0.98707333     0.78000
Cd538      Cd  0.38790836  0.79180304  0.02799234     1.37500
O539        O  0.38692757  0.87075703  0.55794195    -0.57000
O540        O  0.32592877  0.78247475  0.02191129    -0.55800
C541        C  0.43587421  0.77385345  0.99339546     0.78000
O542        O  0.33025446  0.77571026  0.97141627    -0.58200
O543        O  0.38083254  0.87998695  0.00733013    -0.56600
O544        O  0.39452763  0.70385927  0.55273162    -0.56600
O545        O  0.44357142  0.80336575  0.02094746    -0.55800
O546        O  0.05874043  0.65710315  0.84132008    -0.57000
C547        C  0.05243931  0.80439833  0.80790834     0.75600
O548        O  0.05679395  0.77150903  0.92157081    -0.58200
C549        C  0.07445027  0.63192596  0.87089038     0.75600
C550        C  0.15225090  0.76128682  0.91244198     0.78000
Cd551      Cd  0.07467423  0.74230020  0.87299690     1.37500
O552        O  0.05865133  0.75700197  0.80704730    -0.57000
O553        O  0.13796550  0.73348301  0.88364956    -0.55800
C554        C  0.02388776  0.75886676  0.90402233     0.78000
O555        O  0.13039459  0.78212285  0.92275065    -0.58200
O556        O  0.05544778  0.82255170  0.83835104    -0.56600
O557        O  0.08875546  0.65837227  0.90026911    -0.56600
O558        O  0.01461803  0.74067903  0.87189205    -0.55800
O559        O  0.39265199  0.14824748  0.55746712    -0.57000
C560        C  0.42879051  0.29621802  0.59155334     0.75600
O561        O  0.40311121  0.26879925  0.98381875    -0.58200
C562        C  0.38706493  0.12070689  0.52927819     0.75600
C563        C  0.31453049  0.26014954  0.00140551     0.78000
Cd564      Cd  0.39156492  0.23050816  0.52727665     1.37500
O565        O  0.43569788  0.24879384  0.59280057    -0.57000
O566        O  0.32940081  0.22691901  0.52158262    -0.55800
C567        C  0.43293255  0.24557047  0.99314983     0.78000
O568        O  0.33564290  0.27659745  0.98920272    -0.58200
O569        O  0.40328830  0.31218154  0.56190525    -0.56600
O570        O  0.37777880  0.14723244  0.00718938    -0.56600
O571        O  0.44866235  0.22509217  0.52188769    -0.55800
O572        O  0.06298348  0.27236941  0.81481457    -0.57000
C573        C  0.07464961  0.40915307  0.87008319     0.75600
O574        O  0.05889635  0.27728940  0.92736611    -0.58200
C575        C  0.06052734  0.22522900  0.81956936     0.75600
C576        C  0.15717059  0.28571957  0.92490613     0.78000
Cd577      Cd  0.07888311  0.29959139  0.87986620     1.37500
O578        O  0.06329761  0.37910909  0.84230490    -0.57000
O579        O  0.14357329  0.31066808  0.89520357    -0.55800
C580        C  0.02582236  0.28882136  0.90852468     0.78000
O581        O  0.13440220  0.26625760  0.93370014    -0.58200
O582        O  0.08694348  0.38792463  0.90124885    -0.56600
O583        O  0.06551069  0.21299445  0.85160182    -0.56600
O584        O  0.01746561  0.30435926  0.87631202    -0.55800
C585        C  0.21938656  0.31220505  0.93834979    -0.05000
C586        C  0.19745680  0.28042527  0.94734393     0.01000
C587        C  0.21464805  0.24492442  0.97645753    -0.07600
C588        C  0.25272684  0.24058697  0.99345760    -0.05000
C589        C  0.27453742  0.27074485  0.98322625     0.00900
C590        C  0.25746333  0.30861306  0.95586574    -0.07500
C591        C  0.27885770  0.34575062  0.94509760     0.62900
H592        H  0.20630625  0.34015755  0.91690049     0.13600
H593        H  0.26568576  0.19346486  0.49665588     0.13600
C594        C  0.19292042  0.18652902  0.46789265     0.63100
F595        F  0.25693606  0.38272644  0.92115446    -0.22100
F596        F  0.29619442  0.31964428  0.92750477    -0.19400
F597        F  0.30399934  0.37064271  0.97635941    -0.19100
F598        F  0.16911435  0.16633957  0.43389482    -0.19100
F599        F  0.17400704  0.20508044  0.48642806    -0.19500
F600        F  0.21505114  0.14705480  0.48847282    -0.22100
C601        C  0.09730750  0.49259289  0.90026703    -0.05000
C602        C  0.07468424  0.46605205  0.86769571     0.01000
C603        C  0.05308190  0.49443375  0.83549237    -0.07600
C604        C  0.05396620  0.54836502  0.83792764    -0.05000
C605        C  0.07586011  0.57482533  0.87097545     0.00900
C606        C  0.09862729  0.54618040  0.90269330    -0.07500
C607        C  0.12460596  0.57103838  0.93922427     0.62900
H608        H  0.11425982  0.47065615  0.92441146     0.13600
H609        H  0.03717961  0.57043575  0.81378181     0.13600
C610        C  0.02895058  0.46862317  0.79879672     0.63100
F611        F  0.14584958  0.53539212  0.96496076    -0.22100
F612        F  0.10537940  0.59807486  0.95438886    -0.19400
F613        F  0.14763372  0.60343402  0.93352765    -0.19100
F614        F  0.00461675  0.43717262  0.80304159    -0.19100
F615        F  0.04987604  0.44007120  0.78641706    -0.19500
F616        F  0.00935269  0.50371861  0.77174294    -0.22100
C617        C  0.36064254  0.98372303  0.00794865    -0.05000
C618        C  0.38446363  0.95836999  0.04013764     0.01000
C619        C  0.39753219  0.98541616  0.56559973    -0.07600
C620        C  0.39878576  0.03901364  0.56317042    -0.05000
C621        C  0.38247498  0.06671346  0.03694681     0.00900
C622        C  0.35908252  0.03729794  0.00558298    -0.07500
C623        C  0.33236389  0.06153446  0.96958793     0.62900
H624        H  0.34348134  0.96083801  0.98405276     0.13600
H625        H  0.41245170  0.06185022  0.58813721     0.13600
C626        C  0.41474030  0.96102100  0.60347665     0.63100
F627        F  0.30888786  0.02592382  0.94519006    -0.22100
F628        F  0.35075362  0.08356018  0.95231246    -0.19400
F629        F  0.31178193  0.09830487  0.97665811    -0.19100
F630        F  0.44165643  0.92710769  0.60585780    -0.19100
F631        F  0.38873964  0.93550390  0.60916845    -0.19500
F632        F  0.43015307  0.99696225  0.63170608    -0.22100
C633        C  0.24970805  0.78217442  0.98680568    -0.05000
C634        C  0.26940510  0.77308865  0.96650168     0.01000
C635        C  0.24994383  0.76162707  0.92797077    -0.07600
C636        C  0.21189062  0.75949772  0.91178952    -0.05000
C637        C  0.19234729  0.76812267  0.93223017     0.00900
C638        C  0.21168197  0.77976125  0.97059378    -0.07500
C639        C  0.19274324  0.78815085  0.99489068     0.62900
H640        H  0.26447867  0.79129921  0.01598453     0.13600
H641        H  0.19686560  0.75080226  0.88255164     0.13600
C642        C  0.26864288  0.75078786  0.90366011     0.63100
F643        F  0.21698730  0.79510375  0.03176435    -0.22100
F644        F  0.17197459  0.74602011  0.99235054    -0.19400
F645        F  0.17099788  0.83132988  0.98377530    -0.19100
F646        F  0.29224307  0.70985030  0.91747852    -0.19100
F647        F  0.28729904  0.79352927  0.90253615    -0.19500
F648        F  0.24435050  0.73849177  0.86759949    -0.22100
C649        C  0.06798936  0.14133001  0.74511457    -0.05000
C650        C  0.04948149  0.09733905  0.74618426     0.01000
C651        C  0.03154096  0.09829499  0.76902819    -0.07600
C652        C  0.03310705  0.14287915  0.78985900    -0.05000
C653        C  0.05328232  0.18556468  0.79016787     0.00900
C654        C  0.07006238  0.18560912  0.76639622    -0.07500
C655        C  0.09250248  0.23039395  0.76556575     0.62900
H656        H  0.08359945  0.13898330  0.72967901     0.13600
H657        H  0.02050040  0.14353758  0.80821175     0.13600
C658        C  0.01383922  0.05115706  0.77451425     0.63100
F659        F  0.10840350  0.22095916  0.74237114    -0.22100
F660        F  0.11978185  0.24005011  0.80069992    -0.19400
F661        F  0.07068378  0.27329388  0.75292695    -0.19100
F662        F  0.03926886  0.01264492  0.78968252    -0.19100
F663        F  0.98701853  0.03513863  0.74097838    -0.19500
F664        F  0.99817478  0.06049350  0.79794939    -0.22100
C665        C  0.02094226  0.91530316  0.74132121    -0.05000
C666        C  0.04890213  0.91556180  0.73075112     0.01000
C667        C  0.07099854  0.87094331  0.73725687    -0.07600
C668        C  0.06831594  0.83233221  0.75942702    -0.05000
C669        C  0.04533950  0.83766376  0.77618238     0.00900
C670        C  0.01945685  0.87780287  0.76507212    -0.07500
C671        C  0.99159535  0.88258167  0.77961176     0.62900
H672        H  0.00299036  0.94783776  0.73475183     0.13600
H673        H  0.08696913  0.80014123  0.76661885     0.13600
C674        C  0.09960768  0.86345857  0.72394476     0.63100
F675        F  0.96474887  0.91760629  0.75969492    -0.22100
F676        F  0.00800960  0.89869969  0.81618276    -0.19400
F677        F  0.97546977  0.83578162  0.77691545    -0.19100
F678        F  0.13318645  0.85845948  0.75403382    -0.19100
F679        F  0.10086437  0.90352440  0.70302192    -0.19500
F680        F  0.09238722  0.81921785  0.70259189    -0.22100
C681        C  0.93984183  0.29587279  0.92298952    -0.05000
C682        C  0.95358175  0.28057740  0.95990323     0.01000
C683        C  0.99028329  0.26489100  0.97881764    -0.07600
C684        C  0.01222180  0.26723653  0.96054445    -0.05000
C685        C  0.99912963  0.28481412  0.92409212     0.00900
C686        C  0.96183721  0.29870537  0.90464069    -0.07500
C687        C  0.94492899  0.31714493  0.86496646     0.62900
H688        H  0.91170316  0.30729034  0.90892026     0.13600
H689        H  0.04037809  0.25622216  0.97527451     0.13600
C690        C  0.01336825  0.22712491  0.51996050     0.63100
F691        F  0.90831936  0.32716474  0.85157498    -0.24100
F692        F  0.94899467  0.28002984  0.84223807    -0.19400
F693        F  0.96122370  0.36192029  0.86297505    -0.19100
F694        F  0.98890979  0.19321880  0.52168963    -0.19100
F695        F  0.02228216  0.26353812  0.54784817    -0.19500
F696        F  0.04441484  0.19975253  0.52612626    -0.22100
C697        C  0.00798640  0.15457035  0.66088553    -0.05000
C698        C  0.99206257  0.10681150  0.65884353     0.01000
C699        C  0.95371595  0.10414358  0.64165782    -0.07600
C700        C  0.93333672  0.14681931  0.62211912    -0.05000
C701        C  0.94987241  0.19226015  0.62023594     0.00900
C702        C  0.98757400  0.19772077  0.64239021    -0.07500
C703        C  0.00686179  0.24701438  0.64339259     0.62900
H704        H  0.03702902  0.15591320  0.67204922     0.13600
H705        H  0.90441781  0.14340739  0.60542690     0.13600
C706        C  0.93427877  0.05430214  0.63822917     0.63100
F707        F  0.04352499  0.24389579  0.66671828    -0.22100
F708        F  0.99274004  0.28670099  0.65610640    -0.19400
F709        F  0.00253030  0.25790725  0.60833703    -0.19100
F710        F  0.89784303  0.06239603  0.62752546    -0.19100
F711        F  0.94857568  0.03024759  0.67182205    -0.19500
F712        F  0.93779097  0.02263834  0.61225541    -0.22100
C713        C  0.46716354  0.26262352  0.92031548    -0.05000
C714        C  0.50427069  0.25226497  0.94122077     0.01000
C715        C  0.51792483  0.24329218  0.97972516    -0.07600
C716        C  0.49352198  0.24265095  0.99518961    -0.05000
C717        C  0.45625526  0.25138381  0.97407467     0.00900
C718        C  0.44286430  0.26290226  0.93602197    -0.07500
C719        C  0.40310930  0.27392209  0.91163545     0.62900
H720        H  0.45717659  0.27013389  0.89114100     0.13600
H721        H  0.50793751  0.22925011  0.52209017     0.13600
C722        C  0.56296110  0.22390127  0.50349317     0.63100
F723        F  0.39585377  0.28146878  0.87518282    -0.22100
F724        F  0.39274220  0.31781431  0.92412661    -0.19400
F725        F  0.38261645  0.23317098  0.91237631    -0.19100
F726        F  0.58429074  0.26603567  0.50786477    -0.19100
F727        F  0.56936792  0.19100888  0.99125652    -0.19500
F728        F  0.56824882  0.20938258  0.53829056    -0.22100
C729        C  0.74528300  0.29893172  0.97728321    -0.05000
C730        C  0.76555021  0.26397756  0.96706118     0.01000
C731        C  0.74724673  0.22345125  0.94209555    -0.07600
C732        C  0.70939861  0.22047808  0.92758767    -0.05000
C733        C  0.68892433  0.25592626  0.93713597     0.00900
C734        C  0.70733609  0.29587337  0.96287323    -0.07500
C735        C  0.68747360  0.33580518  0.97486590     0.62900
H736        H  0.77013428  0.32732757  0.50828871     0.13600
H737        H  0.69535987  0.18984627  0.90830259     0.13600
C738        C  0.76727196  0.18268093  0.93106635     0.63100
F739        F  0.72017448  0.36880273  0.50895464    -0.22100
F740        F  0.67125383  0.31263876  0.99392333    -0.19400
F741        F  0.66152898  0.36017630  0.94419469    -0.19100
F742        F  0.79495421  0.16199083  0.96235087    -0.19100
F743        F  0.78127280  0.20396965  0.90931841    -0.19500
F744        F  0.74485442  0.14304610  0.91100384    -0.22100
C745        C  0.93943561  0.75457739  0.92042216    -0.05000
C746        C  0.95512783  0.75851184  0.95904619     0.01000
C747        C  0.99242242  0.76950868  0.97891463    -0.07600
C748        C  0.01352628  0.77070514  0.95969668    -0.05000
C749        C  0.99848090  0.76279521  0.92115933     0.00900
C750        C  0.96028793  0.75720346  0.90088703    -0.07500
C751        C  0.94113273  0.75415304  0.85892783     0.62900
H752        H  0.91068529  0.74768112  0.90568418     0.13600
H753        H  0.04229818  0.77691660  0.97502120     0.13600
C754        C  0.98324526  0.83667017  0.48692065     0.63100
F755        F  0.90397409  0.75749413  0.84533840    -0.22100
F756        F  0.94917870  0.70806373  0.84685265    -0.19400
F757        F  0.95180193  0.79420464  0.84437596    -0.19100
F758        F  0.99213231  0.81292664  0.52015835    -0.19100
F759        F  0.95388803  0.86883145  0.47867454    -0.19500
F760        F  0.01226596  0.86640719  0.49127243    -0.22100
C761        C  0.92722354  0.54618420  0.56136348    -0.05000
C762        C  0.88276920  0.56613920  0.02098859     0.01000
C763        C  0.85805333  0.53739965  0.99003395    -0.07600
C764        C  0.85813304  0.48395227  0.99268072    -0.05000
C765        C  0.88179058  0.45817294  0.02480152     0.00900
C766        C  0.92922286  0.49227817  0.56359799    -0.07500
C767        C  0.96391600  0.46681885  0.59099161     0.62900
H768        H  0.95051342  0.56902871  0.57859501     0.13600
H769        H  0.83987921  0.46155943  0.96904696     0.13600
C770        C  0.83141049  0.56233132  0.95427907     0.63100
F771        F  0.95310540  0.49742000  0.11825416    -0.22100
F772        F  0.95412275  0.42838189  0.08519481    -0.19400
F773        F  0.95743642  0.44029395  0.61657997    -0.19100
F774        F  0.84975241  0.58209852  0.93616459    -0.19100
F775        F  0.82179529  0.60799181  0.50855649    -0.19500
F776        F  0.80644743  0.52776053  0.93042115    -0.22100
C777        C  0.99728300  0.84636853  0.60919707    -0.05000
C778        C  0.96455574  0.83876127  0.61062779     0.01000
C779        C  0.95530814  0.87150706  0.63346499    -0.07600
C780        C  0.97703997  0.91454361  0.65030297    -0.05000
C781        C  0.00716279  0.92603683  0.64457460     0.00900
C782        C  0.01868078  0.88946897  0.62538940    -0.07500
C783        C  0.05148270  0.89539390  0.61827657     0.62900
H784        H  0.00491420  0.82044654  0.59259351     0.13600
H785        H  0.96856185  0.94199120  0.66518515     0.13600
C786        C  0.92250001  0.86164310  0.63967188     0.63100
F787        F  0.04009011  0.90166956  0.58080191    -0.22100
F788        F  0.07261100  0.85159421  0.62914450    -0.19400
F789        F  0.07290569  0.93636318  0.63707240    -0.19100
F790        F  0.92288192  0.81128080  0.64964187    -0.19100
F791        F  0.89122495  0.87121147  0.60775450    -0.19500
F792        F  0.92210531  0.89261583  0.66765890    -0.22100
C793        C  0.51938731  0.76531563  0.97593143    -0.05000
C794        C  0.50352991  0.76528441  0.93709466     0.01000
C795        C  0.46524425  0.76286374  0.91696021    -0.07600
C796        C  0.44435490  0.76346305  0.93656256    -0.05000
C797        C  0.46019530  0.76735656  0.97531356     0.00900
C798        C  0.49847148  0.76672358  0.99547151    -0.07500
C799        C  0.51516585  0.78041826  0.53878040     0.62900
H800        H  0.54856092  0.76647642  0.99105553     0.13600
H801        H  0.41515541  0.76319223  0.92153231     0.13600
C802        C  0.44623018  0.75953403  0.87498718     0.63100
F803        F  0.55241497  0.77697119  0.55343026    -0.22100
F804        F  0.50361589  0.73925995  0.55144687    -0.19400
F805        F  0.50694509  0.82560566  0.55181554    -0.19100
F806        F  0.46149242  0.72073057  0.86274003    -0.19100
F807        F  0.44920993  0.80548892  0.86035530    -0.19500
F808        F  0.40981545  0.74920158  0.86162872    -0.22100
C809        C  0.56127565  0.97828361  0.84710063    -0.05000
C810        C  0.56705799  0.95420572  0.88005193     0.01000
C811        C  0.56958127  0.98465375  0.91055898    -0.07600
C812        C  0.56829002  0.03820849  0.90751541    -0.05000
C813        C  0.56381464  0.06253082  0.87505584     0.00900
C814        C  0.55948354  0.03200966  0.84389340    -0.07500
C815        C  0.55383737  0.05553462  0.80767632     0.62900
H816        H  0.55876975  0.95446729  0.82388475     0.13600
H817        H  0.57093433  0.06178233  0.93088940     0.13600
C818        C  0.57257081  0.96118499  0.94592559     0.63100
F819        F  0.55325205  0.01888406  0.78223027    -0.22100
F820        F  0.58156942  0.08893748  0.81386311    -0.19400
F821        F  0.52115729  0.08152583  0.79224897    -0.19100
F822        F  0.60595295  0.93783767  0.96482007    -0.19100
F823        F  0.54558043  0.92553991  0.93745414    -0.19500
F824        F  0.56893513  0.99757747  0.96939422    -0.22100
C825        C  0.71185704  0.76020755  0.91845329    -0.05000
C826        C  0.69508527  0.76242952  0.94189265     0.01000
C827        C  0.71719497  0.76029416  0.98073876    -0.07600
C828        C  0.75517898  0.75669047  0.99435755    -0.05000
C829        C  0.77197923  0.75506349  0.97078133     0.00900
C830        C  0.74961040  0.75606940  0.93186761    -0.07500
C831        C  0.76488058  0.75152410  0.90404164     0.62900
H832        H  0.69480960  0.76144589  0.88891590     0.13600
H833        H  0.77682347  0.76571442  0.52705144     0.13600
C834        C  0.70113635  0.76286947  0.00790165     0.63100
F835        F  0.73799961  0.74987456  0.86790870    -0.22100
F836        F  0.78507171  0.70693855  0.90999522    -0.19400
F837        F  0.78621643  0.79330711  0.90745357    -0.19100
F838        F  0.68571946  0.73057731  0.50935228    -0.19100
F839        F  0.68015918  0.80663189  0.00205562    -0.19500
F840        F  0.73242025  0.77820997  0.54754667    -0.22100
C841        C  0.54874777  0.37537468  0.74141689    -0.05000
C842        C  0.53233742  0.42141415  0.74472885     0.01000
C843        C  0.51450182  0.42263088  0.76753375    -0.07600
C844        C  0.51669807  0.37941999  0.78873690    -0.05000
C845        C  0.53655713  0.33547312  0.78843376     0.00900
C846        C  0.55122078  0.33219150  0.76276378    -0.07500
C847        C  0.57173004  0.28505033  0.75971501     0.62900
H848        H  0.56312624  0.37539000  0.72472986     0.13600
H849        H  0.50509769  0.38110551  0.80799209     0.13600
C850        C  0.49644330  0.47101493  0.77251507     0.63100
F851        F  0.58545902  0.29133594  0.73457685    -0.22100
F852        F  0.54872288  0.24368776  0.74799198    -0.19400
F853        F  0.60049577  0.27467045  0.79364061    -0.19100
F854        F  0.47119942  0.48784700  0.73839639    -0.19100
F855        F  0.52208578  0.50836218  0.78969140    -0.19500
F856        F  0.47880924  0.46316057  0.79401473    -0.22100
C857        C  0.51326088  0.61219771  0.74998639    -0.05000
C858        C  0.54133463  0.60451487  0.73993930     0.01000
C859        C  0.56653350  0.64446449  0.74717310    -0.07600
C860        C  0.56782613  0.68465031  0.77128248    -0.05000
C861        C  0.54370977  0.68715400  0.78689514     0.00900
C862        C  0.51389490  0.65351234  0.77328477    -0.07500
C863        C  0.48332825  0.66064225  0.78382126     0.62900
H864        H  0.49281300  0.58317321  0.74265226     0.13600
H865        H  0.58928565  0.71245835  0.77968967     0.13600
C866        C  0.59358594  0.64473776  0.73145676     0.63100
F867        F  0.45334776  0.63259399  0.76065362    -0.22100
F868        F  0.47312990  0.71166260  0.78101363    -0.19400
F869        F  0.49428416  0.64495283  0.81969904    -0.19100
F870        F  0.58742262  0.60611316  0.70547428    -0.19100
F871        F  0.62819303  0.63937119  0.75974253    -0.19500
F872        F  0.59113108  0.69084864  0.71434288    -0.22100
C873        C  0.46118638  0.41118160  0.65655436    -0.05000
C874        C  0.49504778  0.41762361  0.65723013     0.01000
C875        C  0.51004129  0.37647270  0.64509686    -0.07600
C876        C  0.48840023  0.33408720  0.62750807    -0.05000
C877        C  0.45219979  0.33229337  0.62080775     0.00900
C878        C  0.43869444  0.37000267  0.63709163    -0.07500
C879        C  0.40053077  0.36753466  0.63306968     0.62900
H880        H  0.45073660  0.44159534  0.66754150     0.13600
H881        H  0.49891082  0.30443375  0.61573413     0.13600
C882        C  0.54759863  0.37726273  0.64742909     0.63100
F883        F  0.39351971  0.40669705  0.65255689    -0.22100
F884        F  0.39581487  0.32150685  0.64646350    -0.19400
F885        F  0.37569083  0.37157267  0.59632994    -0.19100
F886        F  0.56789348  0.41789571  0.66850701    -0.19100
F887        F  0.54487794  0.38015306  0.61218109    -0.19500
F888        F  0.56576540  0.33259232  0.66336142    -0.22100
C889        C  0.41705321  0.63715277  0.61613206    -0.05000
C890        C  0.43360736  0.68330863  0.61586890     0.01000
C891        C  0.47089532  0.68940132  0.63981191    -0.07600
C892        C  0.49135131  0.64617286  0.65819791    -0.05000
C893        C  0.47554234  0.59815625  0.65532751     0.00900
C894        C  0.43728631  0.59464941  0.63605500    -0.07500
C895        C  0.41806712  0.54503106  0.63381201     0.62900
H896        H  0.38832716  0.63353698  0.59845374     0.13600
H897        H  0.52046891  0.64836645  0.67152815     0.13600
C898        C  0.48966047  0.74002927  0.64354435     0.63100
F899        F  0.38087015  0.55098287  0.61617993    -0.22100
F900        F  0.42771678  0.52826133  0.66916974    -0.19400
F901        F  0.42733228  0.50856047  0.61432153    -0.19100
F902        F  0.47345171  0.77745401  0.65580705    -0.19100
F903        F  0.48736761  0.75374626  0.60976745    -0.19500
F904        F  0.52580303  0.73767961  0.66869646    -0.22100
loop_ 
_geom_bond_atom_site_label_1 
_geom_bond_atom_site_label_2 
_geom_bond_distance 
_geom_bond_site_symmetry_2 
_ccdc_geom_bond_type 
N1            C5   1.373       .  A
N1            C2   1.375       .  A
N1            N8   1.435       .  S
C2            C3   1.379       .  A
C2          C441   1.490       .  S
C3            C4   1.356       .  A
C3            H6   1.083       .  S
C4            C5   1.380       .  A
C4            H7   1.082       .  S
C5          C422   1.490       .  S
N8           C12   1.375       .  A
N8            C9   1.375       .  A
C9           C10   1.383       .  A
C9          C406   1.494       .  S
C10          C11   1.356       .  A
C10          H13   1.081       .  S
C11          C12   1.377       .  A
C11          H14   1.083       .  S
C12         C390   1.492       .  S
O15          C18   1.267       .  A
O15         Cd20   2.491       .  S
C16         C409   1.486       .  S
C16          O25   1.266       .  A
C16          O21   1.265       .  A
O17          C23   1.268       .  A
O17         Cd20   2.534       .  S
C18         C358   1.487       .  S
C18          O26   1.262       .  A
C19         C342   1.503       .  S
C19          O24   1.270       .  A
C19          O22   1.264       .  A
Cd20         O27   2.473       .  S
Cd20         O26   2.429       .  S
Cd20         O25   2.486       .  S
Cd20         O21   2.483       .  S
Cd20         O24   2.514       .  S
Cd20         O22   2.476       .  S
C23         C374   1.500       .  S
C23          O27   1.263       .  A
O28         C483   1.269       .  A
O28        Cd485   2.473       .  S
C29         C326   1.480       .  S
C29          O38   1.265       .  A
C29          O34   1.265       .  A
O30          C36   1.265       .  A
O30         Cd33   2.520       .  S
C31         C310   1.483       .  S
C31          O39   1.262       .  A
C31         O480   1.269       .  A
C32         C377   1.502       .  S
C32          O37   1.266       .  A
C32         O487   1.266       .  A
Cd33         O39   2.424       .  S
Cd33         O37   2.487       .  S
Cd33        O480   2.510       .  S
Cd33        O492   2.467       .  S
Cd33        O490   2.486       .  S
Cd33        O486   2.481       .  S
Cd33        O487   2.508       .  S
O34        Cd485   2.493       .  S
O35         C484   1.268   1_554  A
O35        Cd485   2.511       .  S
C36         C294   1.491       .  S
C36         O492   1.263       .  A
O38        Cd485   2.468       .  S
O40         C488   1.262   1_554  A
O40        Cd485   2.456       .  S
O41          C44   1.266       .  A
O41         Cd46   2.499       .  S
C42         C393   1.493       .  S
C42          O51   1.266       .  A
C42          O47   1.264       .  A
O43          C49   1.266       .  A
O43         Cd46   2.493       .  S
C44         C361   1.490       .  S
C44          O52   1.264       .  A
C45         C281   1.505       .  S
C45          O50   1.266       .  A
C45          O48   1.265       .  A
Cd46         O53   2.489       .  S
Cd46         O52   2.423       .  S
Cd46         O51   2.470       .  S
Cd46         O47   2.500       .  S
Cd46         O50   2.513       .  S
Cd46         O48   2.487       .  S
C49         C262   1.496       .  S
C49          O53   1.266       .  A
O54         C509   1.266       .  A
O54        Cd511   2.476       .  S
C55         C249   1.489       .  S
C55          O64   1.267       .  A
C55          O60   1.265       .  A
O56          C62   1.266       .  A
O56         Cd59   2.496       .  S
C57         C313   1.488       .  S
C57          O65   1.264       .  A
C57         O506   1.264       .  A
C58         C230   1.497       .  S
C58          O63   1.266       .  A
C58         O513   1.262       .  A
Cd59         O65   2.459       .  S
Cd59         O63   2.510       .  S
Cd59        O506   2.502       .  S
Cd59        O518   2.503       .  S
Cd59        O516   2.477       .  S
Cd59        O512   2.488       .  S
Cd59        O513   2.492       .  S
O60        Cd511   2.492       .  S
O61         C510   1.262   1_554  A
O61        Cd511   2.460       .  S
C62         C278   1.504       .  S
C62         O518   1.267       .  A
O64        Cd511   2.469       .  S
O66         C514   1.266   1_554  A
O66        Cd511   2.481       .  S
N67          C71   1.375       .  A
N67          C68   1.378   1_545  A
N67          N74   1.438       .  S
C68          C69   1.382       .  A
C68         C329   1.494       .  S
C69          C70   1.352   1_565  A
C69          H72   1.081       .  S
C70          C71   1.378       .  A
C70          H73   1.083       .  S
C71         C246   1.488   1_455  S
N74          C78   1.378   1_545  A
N74          C75   1.378       .  A
C75          C76   1.378       .  A
C75         C198   1.496       .  S
C76          C77   1.353   1_545  A
C76          H79   1.083       .  S
C77          C78   1.382       .  A
C77          H80   1.082       .  S
C78         C214   1.496       .  S
O81          C84   1.264       .  A
O81        Cd538   2.486       .  S
C82         C166   1.493       .  S
C82          O91   1.265       .  A
C82         O539   1.266       .  A
O83          C89   1.269       .  A
O83         Cd86   2.511       .  S
C84         C438   1.492       .  S
C84          O92   1.267       .  A
C85         C182   1.505       .  S
C85          O90   1.266       .  A
C85          O88   1.266       .  A
Cd86         O93   2.477       .  S
Cd86         O91   2.433       .  S
Cd86         O90   2.505       .  S
Cd86         O88   2.480       .  S
Cd86        O533   2.493       .  S
Cd86        O544   2.475       .  S
Cd86        O539   2.490       .  S
O87         C534   1.266       .  A
O87        Cd538   2.503       .  S
C89         C345   1.503       .  S
C89          O93   1.262       .  A
O92        Cd538   2.487       .  S
O94          C97   1.269       .  A
O94         Cd99   2.498       .  S
C95         C217   1.483       .  S
C95         O104   1.264       .  A
C95         O100   1.266       .  A
O96         C102   1.269       .  A
O96         Cd99   2.487       .  S
C97         C153   1.492       .  S
C97         O105   1.262       .  A
C98         C185   1.504       .  S
C98         O103   1.267       .  A
C98         O101   1.264       .  A
Cd99        O106   2.470       .  S
Cd99        O105   2.434       .  S
Cd99        O104   2.467       .  S
Cd99        O100   2.494       .  S
Cd99        O103   2.509       .  S
Cd99        O101   2.460       .  S
C102        C297   1.495   1_455  S
C102        O106   1.265       .  A
O107        C110   1.269       .  A
O107       Cd112   2.489       .  S
C108        C425   1.487       .  S
C108        O117   1.263       .  A
C108        O113   1.264       .  A
O109        C115   1.267       .  A
O109       Cd564   2.506       .  S
C110        C621   1.490       .  S
C110        O570   1.263       .  A
C111        C137   1.500       .  S
C111        O116   1.267       .  A
C111        O566   1.266       .  A
Cd112       O119   2.457       .  S
Cd112       O117   2.478       .  S
Cd112       O113   2.505       .  S
Cd112       O114   2.488       .  S
Cd112       O561   2.511   1_554  S
Cd112       O570   2.441       .  S
Cd112       O568   2.483   1_554  S
O114        C563   1.268       .  A
C115        C265   1.504       .  S
C115        O571   1.265       .  A
O116       Cd564   2.498       .  S
O118        C562   1.263       .  A
O118       Cd564   2.435       .  S
O119        C567   1.263   1_554  A
O120        C123   1.263       .  A
O120       Cd125   2.507       .  S
C121        C150   1.496       .  S
C121        O130   1.266       .  A
C121        O126   1.266       .  A
O122        C128   1.268       .  A
O122       Cd125   2.518       .  S
C123        C201   1.498       .  S
C123        O131   1.265       .  A
C124        C134   1.504       .  S
C124        O129   1.265       .  A
C124        O127   1.265       .  A
Cd125       O132   2.479       .  S
Cd125       O131   2.494       .  S
Cd125       O130   2.449       .  S
Cd125       O126   2.507       .  S
Cd125       O129   2.517       .  S
Cd125       O127   2.495       .  S
C128        C233   1.507       .  S
C128        O132   1.263       .  A
C133        C134   1.409       .  A
C133        C138   1.413       .  A
C133        H140   1.083       .  S
C134        C135   1.423       .  A
C135        C136   1.413       .  A
C135        C594   1.520       .  S
C136        C137   1.407       .  A
C136        H593   1.083       .  S
C137        C138   1.421       .  A
C138        C139   1.520       .  S
C139        F143   1.385       .  S
C139        F144   1.383       .  S
C139        F145   1.384       .  S
H141        C588   1.082   1_554  S
C142        C587   1.520       .  S
C142        F146   1.383       .  S
C142        F147   1.383   1_556  S
C142        F148   1.385   1_556  S
C149        C150   1.405       .  A
C149        C154   1.405       .  A
C149        H156   1.082       .  S
C150        C151   1.423       .  A
C151        C152   1.413       .  A
C151        C158   1.519       .  S
C152        C153   1.406       .  A
C152        H157   1.082       .  S
C153        C154   1.422       .  A
C154        C155   1.523       .  S
C155        F159   1.385       .  S
C155        F160   1.383       .  S
C155        F161   1.384       .  S
C158        F162   1.383   1_455  S
C158        F163   1.383       .  S
C158        F164   1.385   1_455  S
C165        C166   1.406       .  A
C165        C170   1.404   1_565  A
C165        H172   1.082       .  S
C166        C619   1.422       .  A
C167        C168   1.410   1_565  A
C167        C618   1.419       .  A
C167        C174   1.519       .  S
C168        C621   1.407       .  A
C168        H173   1.082       .  S
C169        C170   1.421       .  A
C169        C620   1.406       .  A
C169        C562   1.489       .  S
C170        C171   1.522       .  S
C171        F175   1.385       .  S
C171        F176   1.383       .  S
C171        F177   1.384       .  S
C174        F178   1.383       .  S
C174        F179   1.383       .  S
C174        F180   1.385       .  S
C181        C182   1.410       .  A
C181        C186   1.413       .  A
C181        H188   1.082       .  S
C182        C183   1.423       .  A
C183        C184   1.411       .  A
C183        C190   1.521       .  S
C184        C185   1.409       .  A
C184        H189   1.082       .  S
C185        C186   1.423       .  A
C186        C187   1.521       .  S
C187        F191   1.385       .  S
C187        F192   1.383       .  S
C187        F193   1.383       .  S
C190        F194   1.383       .  S
C190        F195   1.383       .  S
C190        F196   1.385       .  S
C197        C198   1.408       .  A
C197        C202   1.411       .  A
C197        H204   1.083       .  S
C198        C199   1.421       .  A
C199        C200   1.411       .  A
C199        C206   1.513       .  S
C200        C201   1.405       .  A
C200        H205   1.083       .  S
C201        C202   1.421       .  A
C202        C203   1.519       .  S
C203        F207   1.385       .  S
C203        F208   1.383       .  S
C203        F209   1.383       .  S
C206        F210   1.381       .  S
C206        F211   1.379   1_455  S
C206        F212   1.385   1_455  S
C213        C214   1.405       .  A
C213        C218   1.411       .  A
C213        H220   1.079   1_455  S
C214        C215   1.426       .  A
C215        C216   1.404       .  A
C215        C222   1.517       .  S
C216        C217   1.399       .  A
C216        H221   1.085       .  S
C217        C218   1.416       .  A
C218        C219   1.516   1_455  S
C219        F223   1.384       .  S
C219        F224   1.382   1_655  S
C219        F225   1.383       .  S
C222        F226   1.384       .  S
C222        F227   1.378       .  S
C222        F228   1.383       .  S
C229        C230   1.403       .  A
C229        C234   1.412       .  A
C229        H236   1.082       .  S
C230        C231   1.421       .  A
C231        C232   1.413   1_655  A
C231        C690   1.520   1_655  S
C232        C233   1.410       .  A
C232        H237   1.082       .  S
C233        C234   1.428   1_455  A
C234        C235   1.521       .  S
C235        F239   1.385       .  S
C235        F240   1.383       .  S
C235        F241   1.383       .  S
C238        C683   1.519   1_454  S
C238        F242   1.384   1_455  S
C238        F243   1.382       .  S
C238        F244   1.384       .  S
C245        C246   1.404       .  A
C245        C250   1.408       .  A
C245        H252   1.079   1_655  S
C246        C247   1.424       .  A
C247        C248   1.410       .  A
C247        C254   1.518       .  S
C248        C249   1.402       .  A
C248        H253   1.083       .  S
C249        C250   1.418       .  A
C250        C251   1.518       .  S
C251        F255   1.385   1_655  S
C251        F256   1.383       .  S
C251        F257   1.382       .  S
C254        F258   1.385       .  S
C254        F259   1.378       .  S
C254        F260   1.381       .  S
C261        C262   1.405       .  A
C261        C266   1.413       .  A
C261        H268   1.083       .  S
C262        C263   1.420       .  A
C263        C264   1.411       .  A
C263        C722   1.521       .  S
C264        C265   1.410       .  A
C264        H721   1.082       .  S
C265        C266   1.425       .  A
C266        C267   1.519       .  S
C267        F271   1.385       .  S
C267        F272   1.383       .  S
C267        F273   1.383       .  S
H269        C716   1.083   1_554  S
C270        C715   1.521   1_554  S
C270        F274   1.383       .  S
C270        F276   1.385       .  S
C270        F727   1.383   1_554  S
F275        C722   1.384       .  S
C277        C278   1.408       .  A
C277        C282   1.415       .  A
C277        H736   1.082       .  S
C278        C279   1.423       .  A
C279        C280   1.412       .  A
C279        C286   1.520       .  S
C280        C281   1.408       .  A
C280        H285   1.082       .  S
C281        C282   1.423       .  A
C282        C283   1.520       .  S
C283        F288   1.383       .  S
C283        F289   1.383       .  S
C283        F739   1.385       .  S
H284        C729   1.083       .  S
C286        F290   1.384       .  S
C286        F291   1.383       .  S
C286        F292   1.385       .  S
F287        C735   1.385       .  S
C293        C294   1.404       .  A
C293        C298   1.409       .  A
C293        H300   1.082       .  S
C294        C295   1.420       .  A
C295        C296   1.412       .  A
C295        C754   1.519       .  S
C296        C297   1.407       .  A
C296        H301   1.082   1_655  S
C297        C298   1.424       .  A
C298        C299   1.521       .  S
C299        F303   1.385       .  S
C299        F304   1.384       .  S
C299        F305   1.383       .  S
C302        C747   1.518   1_454  S
C302        F306   1.382       .  S
C302        F307   1.383   1_455  S
C302        F308   1.385       .  S
C309        C314   1.408       .  A
C309        C762   1.404       .  A
C309        H316   1.083       .  S
C310        C311   1.418       .  A
C310        C761   1.405       .  A
C311        C312   1.403       .  A
C311        C318   1.521       .  S
C312        C313   1.403       .  A
C312        H317   1.083       .  S
C313        C766   1.422       .  A
C314        C765   1.421       .  A
C314        C315   1.519       .  S
C315        F321   1.383       .  S
C315        F771   1.385       .  S
C315        F772   1.383       .  S
C318        F322   1.382       .  S
C318        F324   1.385       .  S
C318        F775   1.384       .  S
F319        C767   1.385       .  S
F320        C767   1.383       .  S
F323        C770   1.384       .  S
C325        C326   1.398       .  A
C325        C330   1.404   1_655  A
C325        H332   1.083   1_655  S
C326        C327   1.411       .  A
C327        C328   1.412       .  A
C327        C334   1.515       .  S
C328        C329   1.408   1_655  A
C328        H333   1.078       .  S
C329        C330   1.427       .  A
C330        C331   1.521       .  S
C331        F335   1.383       .  S
C331        F336   1.383       .  S
C331        F337   1.380       .  S
C334        F338   1.384       .  S
C334        F339   1.382       .  S
C334        F340   1.384       .  S
C341        C342   1.406       .  A
C341        C346   1.413       .  A
C341        H348   1.083       .  S
C342        C343   1.424       .  A
C343        C344   1.412       .  A
C343        C350   1.520       .  S
C344        C345   1.406       .  A
C344        H349   1.082       .  S
C345        C346   1.426       .  A
C346        C799   1.520       .  S
C347        C798   1.518   1_554  S
C347        F351   1.384       .  S
C347        F352   1.383       .  S
C347        F353   1.383       .  S
C350        F354   1.383       .  S
C350        F355   1.383       .  S
C350        F356   1.385       .  S
C357        C358   1.407       .  A
C357        C362   1.412   1_565  A
C357        H364   1.082       .  S
C358        C359   1.420       .  A
C359        C360   1.402   1_565  A
C359        C366   1.523       .  S
C360        C361   1.404       .  A
C360        H365   1.082       .  S
C361        C362   1.422       .  A
C362        C363   1.519       .  S
C363        F367   1.385       .  S
C363        F368   1.383       .  S
C363        F369   1.383       .  S
C366        F370   1.384       .  S
C366        F371   1.383       .  S
C366        F372   1.385       .  S
C373        C374   1.406       .  A
C373        C378   1.411       .  A
C373        H380   1.083       .  S
C374        C375   1.421       .  A
C375        C376   1.416       .  A
C375        C382   1.518       .  S
C376        C377   1.409       .  A
C376        H833   1.083       .  S
C377        C378   1.423       .  A
C378        C379   1.521       .  S
C379        F383   1.385       .  S
C379        F384   1.384       .  S
C379        F385   1.383       .  S
H381        C828   1.082   1_554  S
C382        F387   1.384       .  S
C382        F838   1.383       .  S
C382        F840   1.385       .  S
F386        C834   1.383       .  S
F388        C834   1.385       .  S
C389        C390   1.407       .  A
C389        C394   1.411       .  A
C389        H396   1.073       .  S
C390        C391   1.418       .  A
C391        C392   1.408       .  A
C391        C398   1.513       .  S
C392        C393   1.404       .  A
C392        H397   1.079       .  S
C393        C394   1.421       .  A
C394        C395   1.520       .  S
C395        F399   1.384       .  S
C395        F400   1.383       .  S
C395        F401   1.383       .  S
C398        F402   1.380       .  S
C398        F403   1.382       .  S
C398        F404   1.384       .  S
C405        C406   1.405       .  A
C405        C410   1.412       .  A
C405        H412   1.078       .  S
C406        C407   1.422       .  A
C407        C408   1.404       .  A
C407        C414   1.518       .  S
C408        C409   1.402       .  A
C408        H413   1.085       .  S
C409        C410   1.418       .  A
C410        C411   1.518       .  S
C411        F415   1.385       .  S
C411        F416   1.383       .  S
C411        F417   1.382       .  S
C414        F418   1.383       .  S
C414        F419   1.383       .  S
C414        F420   1.382       .  S
C421        C422   1.405       .  A
C421        C426   1.414       .  A
C421        H428   1.080       .  S
C422        C423   1.420       .  A
C423        C424   1.404       .  A
C423        C430   1.517       .  S
C424        C425   1.402       .  A
C424        H429   1.085       .  S
C425        C426   1.419       .  A
C426        C427   1.518       .  S
C427        F431   1.384       .  S
C427        F432   1.383       .  S
C427        F433   1.382       .  S
C430        F434   1.384       .  S
C430        F435   1.383       .  S
C430        F436   1.383       .  S
C437        C438   1.403       .  A
C437        C442   1.410       .  A
C437        H444   1.083       .  S
C438        C439   1.420       .  A
C439        C440   1.411       .  A
C439        C446   1.518       .  S
C440        C441   1.405       .  A
C440        H445   1.080       .  S
C441        C442   1.419       .  A
C442        C443   1.514       .  S
C443        F447   1.385       .  S
C443        F448   1.381       .  S
C443        F449   1.381       .  S
C446        F450   1.383       .  S
C446        F451   1.382       .  S
C446        F452   1.382       .  S
N453        C457   1.372       .  A
N453        C454   1.375       .  A
N453        N460   1.434       .  S
C454        C455   1.379       .  A
C454        C893   1.491       .  S
C455        C456   1.357       .  A
C455        H458   1.083       .  S
C456        C457   1.381       .  A
C456        H459   1.082       .  S
C457        C874   1.488       .  S
N460        C464   1.376       .  A
N460        C461   1.373       .  A
C461        C462   1.382       .  A
C461        C858   1.490       .  S
C462        C463   1.355       .  A
C462        H465   1.082       .  S
C463        C464   1.377       .  A
C463        H466   1.083       .  S
C464        C842   1.491       .  S
O467        C470   1.267       .  A
O467       Cd472   2.493       .  S
C468        C861   1.486       .  S
C468        O477   1.265       .  A
C468        O473   1.264       .  A
O469        C475   1.267       .  A
O469       Cd472   2.533       .  S
C470        C810   1.488       .  S
C470        O478   1.263       .  A
C471        C794   1.496       .  S
C471        O476   1.269       .  A
C471        O474   1.264       .  A
Cd472       O479   2.469       .  S
Cd472       O478   2.449       .  S
Cd472       O477   2.490       .  S
Cd472       O473   2.500       .  S
Cd472       O476   2.513       .  S
Cd472       O474   2.471       .  S
C475        C826   1.502       .  S
C475        O479   1.264       .  A
C481        C778   1.488       .  S
C481        O490   1.265       .  A
C481        O486   1.266       .  A
O482        C488   1.268       .  A
O482       Cd485   2.516   1_556  S
C483        C762   1.484       .  S
C483        O491   1.263   1_554  A
C484        C829   1.506       .  S
C484        O489   1.266       .  A
Cd485       O491   2.434   1_554  S
Cd485       O489   2.469   1_554  S
C488        C746   1.486       .  S
O493        C496   1.266       .  A
O493       Cd498   2.504       .  S
C494        C845   1.494       .  S
C494        O503   1.266       .  A
C494        O499   1.265       .  A
O495        C501   1.265       .  A
O495       Cd498   2.478       .  S
C496        C813   1.493       .  S
C496        O504   1.264       .  A
C497        C733   1.500       .  S
C497        O502   1.265       .  A
C497        O500   1.265       .  A
Cd498       O505   2.481       .  S
Cd498       O504   2.456       .  S
Cd498       O503   2.475       .  S
Cd498       O499   2.508       .  S
Cd498       O502   2.509       .  S
Cd498       O500   2.471       .  S
C501        C714   1.494       .  S
C501        O505   1.266       .  A
C507        C701   1.488       .  S
C507        O516   1.267       .  A
C507        O512   1.265       .  A
O508        C514   1.267       .  A
O508       Cd511   2.492   1_556  S
C509        C765   1.487       .  S
C509        O517   1.265   1_554  A
C510        C682   1.493       .  S
C510        O515   1.269       .  A
Cd511       O517   2.430   1_554  S
Cd511       O515   2.520   1_554  S
C514        C730   1.497       .  S
N519        C523   1.376       .  A
N519        C520   1.378   1_545  A
N519        N526   1.438       .  S
C520        C521   1.381   1_565  A
C520        C781   1.493       .  S
C521        C522   1.352       .  A
C521        H524   1.082   1_545  S
C522        C523   1.379       .  A
C522        H525   1.083       .  S
C523        C698   1.489   1_455  S
N526        C530   1.377   1_545  A
N526        C527   1.375       .  A
C527        C528   1.377       .  A
C527        C650   1.492       .  S
C528        C529   1.355   1_545  A
C528        H531   1.083       .  S
C529        C530   1.383       .  A
C529        H532   1.082       .  S
C530        C666   1.493       .  S
O533        C536   1.265       .  A
C534        C618   1.487       .  S
C534        O543   1.264       .  A
O535        C541   1.267       .  A
O535       Cd538   2.517   1_556  S
C536        C890   1.488       .  S
C536        O544   1.266       .  A
C537        C634   1.503       .  S
C537        O542   1.264       .  A
C537        O540   1.267   1_556  A
Cd538       O545   2.472       .  S
Cd538       O543   2.438       .  S
Cd538       O542   2.492   1_554  S
Cd538       O540   2.483       .  S
C541        C797   1.494       .  S
C541        O545   1.263   1_556  A
O546        C549   1.268       .  A
O546       Cd551   2.493       .  S
C547        C669   1.480       .  S
C547        O556   1.264       .  A
C547        O552   1.265       .  A
O548        C554   1.268       .  A
O548       Cd551   2.495       .  S
C549        C605   1.494       .  S
C549        O557   1.261       .  A
C550        C637   1.498       .  S
C550        O555   1.267       .  A
C550        O553   1.264       .  A
Cd551       O558   2.470       .  S
Cd551       O557   2.420       .  S
Cd551       O556   2.463       .  S
Cd551       O552   2.481       .  S
Cd551       O555   2.508       .  S
Cd551       O553   2.467       .  S
C554        C749   1.500   1_455  S
C554        O558   1.264       .  A
O559        C562   1.268       .  A
O559       Cd564   2.486       .  S
C560        C877   1.479       .  S
C560        O569   1.264       .  A
C560        O565   1.265       .  A
O561        C567   1.266       .  A
C563        C589   1.504   1_554  S
C563        O568   1.267   1_554  A
Cd564       O571   2.473       .  S
Cd564       O569   2.462       .  S
Cd564       O565   2.495       .  S
Cd564       O566   2.484       .  S
C567        C717   1.494       .  S
O572        C575   1.265       .  A
O572       Cd577   2.501       .  S
C573        C602   1.493       .  S
C573        O582   1.265       .  A
C573        O578   1.266       .  A
O574        C580   1.268       .  A
O574       Cd577   2.493       .  S
C575        C653   1.490       .  S
C575        O583   1.265       .  A
C576        C586   1.505       .  S
C576        O581   1.266       .  A
C576        O579   1.265       .  A
Cd577       O584   2.485       .  S
Cd577       O583   2.472       .  S
Cd577       O582   2.425       .  S
Cd577       O578   2.501       .  S
Cd577       O581   2.511       .  S
Cd577       O579   2.486       .  S
C580        C685   1.505   1_455  S
C580        O584   1.263       .  A
C585        C586   1.409       .  A
C585        C590   1.412       .  A
C585        H592   1.083       .  S
C586        C587   1.424       .  A
C587        C588   1.413       .  A
C588        C589   1.409       .  A
C589        C590   1.423       .  A
C590        C591   1.521       .  S
C591        F595   1.385       .  S
C591        F596   1.383       .  S
C591        F597   1.384       .  S
C594        F598   1.383       .  S
C594        F599   1.383       .  S
C594        F600   1.385       .  S
C601        C602   1.405       .  A
C601        C606   1.403       .  A
C601        H608   1.082       .  S
C602        C603   1.421       .  A
C603        C604   1.412       .  A
C603        C610   1.520       .  S
C604        C605   1.409       .  A
C604        H609   1.082       .  S
C605        C606   1.424       .  A
C606        C607   1.524       .  S
C607        F611   1.385       .  S
C607        F612   1.383       .  S
C607        F613   1.384       .  S
C610        F614   1.383       .  S
C610        F615   1.383       .  S
C610        F616   1.385       .  S
C617        C618   1.403       .  A
C617        C622   1.405   1_565  A
C617        H624   1.083   1_554  S
C619        C620   1.411   1_565  A
C619        C626   1.519       .  S
C620        H625   1.082       .  S
C621        C622   1.422       .  A
C622        C623   1.522   1_554  S
C623        F627   1.385       .  S
C623        F628   1.383       .  S
C623        F629   1.383       .  S
C626        F630   1.383       .  S
C626        F631   1.383       .  S
C626        F632   1.385       .  S
C633        C634   1.409       .  A
C633        C638   1.411       .  A
C633        H640   1.082   1_556  S
C634        C635   1.425       .  A
C635        C636   1.411       .  A
C635        C642   1.521       .  S
C636        C637   1.407       .  A
C636        H641   1.082       .  S
C637        C638   1.420       .  A
C638        C639   1.520       .  S
C639        F643   1.385   1_556  S
C639        F644   1.383       .  S
C639        F645   1.383       .  S
C642        F646   1.383       .  S
C642        F647   1.383       .  S
C642        F648   1.385       .  S
C649        C650   1.406       .  A
C649        C654   1.409       .  A
C649        H656   1.083       .  S
C650        C651   1.423       .  A
C651        C652   1.410       .  A
C651        C658   1.515       .  S
C652        C653   1.403       .  A
C652        H657   1.083       .  S
C653        C654   1.418       .  A
C654        C655   1.518       .  S
C655        F659   1.384       .  S
C655        F660   1.384       .  S
C655        F661   1.383       .  S
C658        F662   1.382       .  S
C658        F663   1.375   1_455  S
C658        F664   1.385   1_455  S
C665        C666   1.404       .  A
C665        C670   1.409       .  A
C665        H672   1.076       .  S
C666        C667   1.425       .  A
C667        C668   1.403       .  A
C667        C674   1.515       .  S
C668        C669   1.399       .  A
C668        H673   1.085       .  S
C669        C670   1.415       .  A
C670        C671   1.516   1_455  S
C671        F675   1.384       .  S
C671        F676   1.382   1_655  S
C671        F677   1.383       .  S
C674        F678   1.384       .  S
C674        F679   1.377       .  S
C674        F680   1.383       .  S
C681        C682   1.403       .  A
C681        C686   1.414       .  A
C681        H688   1.082       .  S
C682        C683   1.419       .  A
C683        C684   1.409   1_655  A
C684        C685   1.408   1_455  A
C684        H689   1.082       .  S
C685        C686   1.428       .  A
C686        C687   1.520       .  S
C687        F691   1.385       .  S
C687        F692   1.383       .  S
C687        F693   1.383       .  S
C690        F694   1.384   1_455  S
C690        F695   1.382       .  S
C690        F696   1.385       .  S
C697        C698   1.406   1_455  A
C697        C702   1.408   1_455  A
C697        H704   1.080       .  S
C698        C699   1.422       .  A
C699        C700   1.410       .  A
C699        C706   1.515       .  S
C700        C701   1.402       .  A
C700        H705   1.084       .  S
C701        C702   1.417       .  A
C702        C703   1.519   1_655  S
C703        F707   1.384       .  S
C703        F708   1.383   1_455  S
C703        F709   1.383       .  S
C706        F710   1.385       .  S
C706        F711   1.376       .  S
C706        F712   1.382       .  S
C713        C714   1.407       .  A
C713        C718   1.412       .  A
C713        H720   1.083       .  S
C714        C715   1.422       .  A
C715        C716   1.409       .  A
C716        C717   1.406       .  A
C717        C718   1.420       .  A
C718        C719   1.519       .  S
C719        F723   1.385       .  S
C719        F724   1.383       .  S
C719        F725   1.383       .  S
C722        F726   1.383       .  S
C722        F728   1.385       .  S
C729        C730   1.408       .  A
C729        C734   1.413       .  A
C730        C731   1.419       .  A
C731        C732   1.409       .  A
C731        C738   1.519       .  S
C732        C733   1.408       .  A
C732        H737   1.082       .  S
C733        C734   1.424       .  A
C734        C735   1.521       .  S
C735        F740   1.383       .  S
C735        F741   1.383       .  S
C738        F742   1.384       .  S
C738        F743   1.383       .  S
C738        F744   1.385       .  S
C745        C746   1.400       .  A
C745        C750   1.412       .  A
C745        H752   1.083       .  S
C746        C747   1.417       .  A
C747        C748   1.408   1_655  A
C748        C749   1.408   1_455  A
C748        H753   1.082       .  S
C749        C750   1.427       .  A
C750        C751   1.519       .  S
C751        F755   1.385       .  S
C751        F756   1.383       .  S
C751        F757   1.384       .  S
C754        F758   1.383       .  S
C754        F759   1.382       .  S
C754        F760   1.385   1_655  S
C761        C766   1.413       .  A
C761        H768   1.083       .  S
C762        C763   1.421   1_554  A
C763        C764   1.404       .  A
C763        C770   1.522       .  S
C764        C765   1.405   1_556  A
C764        H769   1.083       .  S
C766        C767   1.518       .  S
C767        F773   1.383       .  S
C770        F774   1.383       .  S
C770        F776   1.385       .  S
C777        C778   1.401       .  A
C777        C782   1.403   1_655  A
C777        H784   1.084   1_655  S
C778        C779   1.417       .  A
C779        C780   1.412       .  A
C779        C786   1.516       .  S
C780        C781   1.406   1_655  A
C780        H785   1.079       .  S
C781        C782   1.425       .  A
C782        C783   1.521       .  S
C783        F787   1.384       .  S
C783        F788   1.383       .  S
C783        F789   1.381       .  S
C786        F790   1.383       .  S
C786        F791   1.382       .  S
C786        F792   1.385       .  S
C793        C794   1.405       .  A
C793        C798   1.411       .  A
C793        H800   1.083       .  S
C794        C795   1.423       .  A
C795        C796   1.412       .  A
C795        C802   1.519       .  S
C796        C797   1.404       .  A
C796        H801   1.083       .  S
C797        C798   1.421       .  A
C799        F803   1.385       .  S
C799        F804   1.383       .  S
C799        F805   1.383       .  S
C802        F806   1.384       .  S
C802        F807   1.382       .  S
C802        F808   1.385       .  S
C809        C810   1.405       .  A
C809        C814   1.412   1_565  A
C809        H816   1.083       .  S
C810        C811   1.420       .  A
C811        C812   1.407   1_565  A
C811        C818   1.522       .  S
C812        C813   1.406       .  A
C812        H817   1.083       .  S
C813        C814   1.421       .  A
C814        C815   1.519       .  S
C815        F819   1.385       .  S
C815        F820   1.383       .  S
C815        F821   1.383       .  S
C818        F822   1.383       .  S
C818        F823   1.384       .  S
C818        F824   1.385       .  S
C825        C826   1.405       .  A
C825        C830   1.410       .  A
C825        H832   1.082       .  S
C826        C827   1.422       .  A
C827        C828   1.417       .  A
C827        C834   1.519   1_556  S
C828        C829   1.411       .  A
C829        C830   1.425       .  A
C830        C831   1.521       .  S
C831        F835   1.385       .  S
C831        F836   1.384       .  S
C831        F837   1.383       .  S
C834        F839   1.384       .  S
C841        C842   1.406       .  A
C841        C846   1.411       .  A
C841        H848   1.083       .  S
C842        C843   1.418       .  A
C843        C844   1.410       .  A
C843        C850   1.515       .  S
C844        C845   1.405       .  A
C844        H849   1.084       .  S
C845        C846   1.420       .  A
C846        C847   1.520       .  S
C847        F851   1.384       .  S
C847        F852   1.383       .  S
C847        F853   1.383       .  S
C850        F854   1.381       .  S
C850        F855   1.382       .  S
C850        F856   1.385       .  S
C857        C858   1.404       .  A
C857        C862   1.412       .  A
C857        H864   1.081       .  S
C858        C859   1.421       .  A
C859        C860   1.404       .  A
C859        C866   1.517       .  S
C860        C861   1.402       .  A
C860        H865   1.084       .  S
C861        C862   1.418       .  A
C862        C863   1.515       .  S
C863        F867   1.385       .  S
C863        F868   1.384       .  S
C863        F869   1.382       .  S
C866        F870   1.384       .  S
C866        F871   1.383       .  S
C866        F872   1.383       .  S
C873        C874   1.404       .  A
C873        C878   1.410       .  A
C873        H880   1.079       .  S
C874        C875   1.419       .  A
C875        C876   1.403       .  A
C875        C882   1.517       .  S
C876        C877   1.401       .  A
C876        H881   1.085       .  S
C877        C878   1.416       .  A
C878        C879   1.518       .  S
C879        F883   1.385       .  S
C879        F884   1.383       .  S
C879        F885   1.382       .  S
C882        F886   1.383       .  S
C882        F887   1.383       .  S
C882        F888   1.383       .  S
C889        C890   1.401       .  A
C889        C894   1.410       .  A
C889        H896   1.083       .  S
C890        C891   1.417       .  A
C891        C892   1.409       .  A
C891        C898   1.517       .  S
C892        C893   1.405       .  A
C892        H897   1.080       .  S
C893        C894   1.422       .  A
C894        C895   1.514       .  S
C895        F899   1.385       .  S
C895        F900   1.381       .  S
C895        F901   1.381       .  S
C898        F902   1.383       .  S
C898        F903   1.382       .  S
C898        F904   1.383       .  S
