geometry optimzed in LAMMPS
_audit_creation_date              2020-11-30 
_audit_creation_method            'lammps2cif' 
_symmetry_space_group_name_H-M    'P1' 
_symmetry_Int_Tables_number       1 
_symmetry_cell_setting            triclinic 
loop_ 
_symmetry_equiv_pos_as_xyz 
  x,y,z 
_cell_length_a                    36.91998195 
_cell_length_b                    36.97332106911407 
_cell_length_c                    37.44886801437036 
_cell_angle_alpha                 90.22380674030846 
_cell_angle_beta                  89.69144339248952 
_cell_angle_gamma                 90.41401306833656 
loop_ 
_atom_site_label 
_atom_site_type_symbol 
_atom_site_fract_x 
_atom_site_fract_y 
_atom_site_fract_z 
_atom_site_charge 
O1          O  0.31405713  0.69486368  0.75021991    -0.80100
O2          O  0.30117223  0.81220737  0.71803608    -0.80100
O3          O  0.25390054  0.70572022  0.67168479    -0.80100
O4          O  0.28085699  0.75487751  0.82742439    -0.80100
O5          O  0.29339281  0.74953960  0.67881587    -0.80200
O6          O  0.30978817  0.70135074  0.82591971    -0.80100
O7          O  0.27821026  0.80937900  0.77320783    -0.80100
O8          O  0.27296351  0.66095630  0.72236684    -0.80100
C9          C  0.30590197  0.66789365  0.73039326     1.09600
C10         C  0.29836590  0.82521999  0.74955454     1.09500
C11         C  0.27850834  0.72542730  0.65920622     1.09600
C12         C  0.30410105  0.73227309  0.84062851     1.09500
O13         O  0.23951397  0.70270463  0.82610934    -0.80100
O14         O  0.23249519  0.77298102  0.69152494    -0.80200
O15         O  0.20524860  0.66843659  0.75824914    -0.80100
O16         O  0.20217587  0.79964218  0.76697825    -0.80100
O17         O  0.23395613  0.80437777  0.71715066    -0.80100
O18         O  0.25705108  0.65578495  0.78555797    -0.80100
O19         O  0.20176240  0.74610693  0.81892596    -0.80100
O20         O  0.19157330  0.72791543  0.70020214    -0.80100
Co21       Co  0.27688326  0.70609228  0.78700005     1.51500
Co22       Co  0.27446820  0.76815842  0.72679878     1.51700
Co23       Co  0.23014203  0.69346889  0.71690575     1.51600
Co24       Co  0.24059730  0.77291006  0.79249142     1.51500
O25         O  0.24758195  0.73184494  0.75248393    -1.42000
C26         C  0.21141837  0.71870220  0.83608525     1.09500
C27         C  0.20336771  0.75554731  0.68201535     1.09600
C28         C  0.22489075  0.64662289  0.77662043     1.09500
C29         C  0.20879045  0.81594830  0.73804319     1.09500
O30         O  0.76627044  0.18824410  0.68719455    -0.80100
O31         O  0.75021358  0.18760217  0.80600565    -0.80100
O32         O  0.83263480  0.23619725  0.72361163    -0.80100
O33         O  0.67547036  0.22028653  0.76993033    -0.80100
O34         O  0.80938214  0.18900230  0.75249763    -0.80200
O35         O  0.70692333  0.17799075  0.74130202    -0.80100
O36         O  0.71642242  0.23298394  0.82298554    -0.80100
O37         O  0.79072701  0.23957015  0.66996501    -0.80100
C38         C  0.78583373  0.20610347  0.66496332     1.09600
C39         C  0.72807790  0.20145344  0.82842767     1.09500
C40         C  0.83489064  0.20356128  0.73426686     1.09600
C41         C  0.67925533  0.18749469  0.75979733     1.09500
O42         O  0.67570715  0.24085722  0.71072590    -0.80100
O43         O  0.82859229  0.25748560  0.78268321    -0.80200
O44         O  0.75288243  0.30179948  0.69386143    -0.80100
O45         O  0.74121921  0.30156636  0.79976809    -0.80100
O46         O  0.77481125  0.25953527  0.82537985    -0.80100
O47         O  0.72849464  0.25336786  0.66806963    -0.80100
O48         O  0.68961849  0.29124025  0.73866899    -0.80100
O49         O  0.80577256  0.30335826  0.75343401    -0.80100
Co50       Co  0.72304522  0.21575581  0.70627747     1.51500
Co51       Co  0.78706428  0.22324918  0.78726210     1.51700
Co52       Co  0.79115509  0.26958852  0.71406711     1.51600
Co53       Co  0.70994512  0.26177925  0.77894984     1.51500
O54         O  0.75281121  0.24263918  0.74668316    -1.42000
C55         C  0.66884573  0.27358922  0.71752445     1.09500
C56         C  0.82999842  0.29041017  0.77379842     1.09600
C57         C  0.73599852  0.28708038  0.66769205     1.09500
C58         C  0.76073272  0.29089978  0.82597356     1.09500
O59         O  0.65563395  0.72879080  0.22509980    -0.80100
O60         O  0.80896823  0.77399107  0.19322294    -0.80100
O61         O  0.70103340  0.81193644  0.23963585    -0.80100
O62         O  0.76777643  0.67702779  0.21725702    -0.80100
O63         O  0.74058909  0.80996731  0.19618785    -0.80200
O64         O  0.72178576  0.70554507  0.18996132    -0.80100
O65         O  0.82526602  0.72451374  0.22370761    -0.80100
O66         O  0.67572866  0.78365926  0.24328980    -0.80100
C67         C  0.65002662  0.76258031  0.22956803     1.09600
C68         C  0.83037413  0.74787526  0.19900394     1.09500
C69         C  0.71453590  0.82626834  0.21137297     1.09600
C70         C  0.74546901  0.67975359  0.19150808     1.09500
O71         O  0.70463767  0.67978986  0.25356099    -0.80100
O72         O  0.79418693  0.83946299  0.23062778    -0.80200
O73         O  0.69574721  0.79608381  0.31143944    -0.80100
O74         O  0.80847535  0.73481458  0.29729365    -0.80100
O75         O  0.81668364  0.78416871  0.26543930    -0.80100
O76         O  0.68689294  0.73982295  0.28989165    -0.80100
O77         O  0.75005902  0.68413680  0.29099223    -0.80100
O78         O  0.75646599  0.82895706  0.27718973    -0.80100
Co79       Co  0.70538516  0.72970251  0.23634749     1.51500
Co80       Co  0.77686710  0.79246341  0.23110859     1.51700
Co81       Co  0.72598440  0.77906176  0.27480488     1.51600
Co82       Co  0.78594800  0.70751170  0.25713422     1.51500
O83         O  0.75364188  0.74771142  0.24223776    -1.42000
C84         C  0.72181427  0.66763528  0.27982749     1.09500
C85         C  0.77948483  0.84996519  0.25969527     1.09600
C86         C  0.67982253  0.76552047  0.31281308     1.09500
C87         C  0.82538367  0.76407842  0.29113898     1.09500
C88         C  0.51627916  0.99781145  0.03297310     0.02300
C89         C  0.48846988  0.97113849  0.03603541     0.02300
C90         C  0.45894921  0.97141644  0.01170016     0.02300
C91         C  0.45787381  0.99798238  0.98424803     0.02300
C92         C  0.48615604  0.02405283  0.98107943     0.02300
C93         C  0.51475584  0.02454223  0.00603350     0.02300
C94         C  0.65887644  0.03387643  0.18880687     0.80300
N95         N  0.67546518  0.00149976  0.19526274    -0.78000
C96         C  0.66853488  0.97194478  0.17414074     0.82700
N97         N  0.64457584  0.97491843  0.14723467    -0.78000
C98         C  0.62739439  0.00645232  0.14086170     0.82800
N99         N  0.63460573  0.03577894  0.16164220    -0.79700
C100        C  0.67171026  0.16618577  0.03162619     0.80300
N101        N  0.64530377  0.14069188  0.03086721    -0.78000
C102        C  0.63739594  0.12268287  0.00037615     0.82700
N103        N  0.65616112  0.13029753  0.97007151    -0.78000
C104        C  0.68304916  0.15560109  0.97019268     0.82800
N105        N  0.69069959  0.17397115  0.00111262    -0.79700
C106        C  0.31570633  0.02247654  0.83053890     0.80300
N107        N  0.33826727  0.02191388  0.85903493    -0.78000
C108        C  0.35657692  0.99157755  0.86735597     0.82700
N109        N  0.35227031  0.96157817  0.84713520    -0.78000
C110        C  0.32943099  0.96093536  0.81887692     0.82800
N111        N  0.31131144  0.99189400  0.81014044    -0.79700
C112        C  0.47889579  0.16175028  0.82164612     0.80300
N113        N  0.47702083  0.13810124  0.84891029    -0.78000
C114        C  0.50563928  0.11767359  0.85826105     0.82700
N115        N  0.53720315  0.12093173  0.83961201    -0.78000
C116        C  0.54010148  0.14433741  0.81162874     0.82800
N117        N  0.51062972  0.16469943  0.80281401    -0.79700
C118        C  0.45146804  0.84633891  0.20340968     0.80300
N119        N  0.45443009  0.87038896  0.17609681    -0.78000
C120        C  0.48607768  0.87468152  0.15796759     0.82700
N121        N  0.51525413  0.85471523  0.16710127    -0.78000
C122        C  0.51304261  0.83072612  0.19442044     0.82800
N123        N  0.48111217  0.82650030  0.21249038    -0.79700
C124        C  0.31390557  0.81416860  0.03627754     0.80300
N125        N  0.33774211  0.84215134  0.03595993    -0.78000
C126        C  0.35677064  0.85066952  0.00606079     0.82700
N127        N  0.35174072  0.83041945  0.97605630    -0.78000
C128        C  0.32817512  0.80186879  0.97576556     0.82800
N129        N  0.30947918  0.79369648  0.00629400    -0.79700
C130        C  0.03365332  0.51551340  0.01373855     0.02300
C131        C  0.03572896  0.48809537  0.98705446     0.02300
C132        C  0.00550161  0.46518459  0.97980747     0.02300
C133        C  0.97375193  0.46812408  0.00110163     0.02300
C134        C  0.97267872  0.49382655  0.02943348     0.02300
C135        C  0.00196696  0.51822181  0.03507192     0.02300
C136        C  0.17567026  0.67207429  0.98024936     0.80300
N137        N  0.14676782  0.64943071  0.98328233    -0.78000
C138        C  0.13919855  0.63267580  0.01447793     0.82700
N139        N  0.16098654  0.63831178  0.04297820    -0.78000
C140        C  0.19010522  0.66103480  0.04140320     0.82800
N141        N  0.19777453  0.67770506  0.00935578    -0.79700
C142        C  0.17918223  0.50683880  0.83066061     0.80300
N143        N  0.19574387  0.47418771  0.82528526    -0.78000
C144        C  0.18820369  0.44583135  0.84758410     0.82700
N145        N  0.16423843  0.45032082  0.87448410    -0.78000
C146        C  0.14789254  0.48247882  0.88013425     0.82800
N147        N  0.15550341  0.51056122  0.85814500    -0.79700
C148        C  0.96509611  0.69202658  0.15893997     0.80300
N149        N  0.96436639  0.66439483  0.13464022    -0.78000
C150        C  0.99243831  0.64085475  0.13232348     0.82700
N151        N  0.02093255  0.64511313  0.15449371    -0.78000
C152        C  0.02214938  0.67206127  0.17877676     0.82800
N153        N  0.99406678  0.69537652  0.18111762    -0.79700
C154        C  0.79948572  0.54364151  0.14557175     0.80300
N155        N  0.82776023  0.54108255  0.12220860    -0.78000
C156        C  0.84507545  0.50928441  0.11702325     0.82700
N157        N  0.83411168  0.47973342  0.13494742    -0.78000
C158        C  0.80615028  0.48082897  0.15804682     0.82800
N159        N  0.78846322  0.51299162  0.16373456    -0.79700
C160        C  0.03630803  0.32069841  0.82223056     0.80300
N161        N  0.03897571  0.34325456  0.85104675    -0.78000
C162        C  0.00892137  0.35935734  0.86478137     0.82700
N163        N  0.97616640  0.35229470  0.85027318    -0.78000
C164        C  0.97268125  0.32959246  0.82202853     0.82800
N165        N  0.00295266  0.31409103  0.80752681    -0.79700
C166        C  0.82897292  0.31297525  0.02581867     0.80300
N167        N  0.80711520  0.30819150  0.99637734    -0.78000
C168        C  0.81376075  0.32754854  0.96549378     0.82700
N169        N  0.84198573  0.35138095  0.96502162    -0.78000
C170        C  0.86378630  0.35577474  0.99368328     0.82800
N171        N  0.85698147  0.33669053  0.02354199    -0.79700
C172        C  0.48360894  0.54376450  0.50897268     0.02300
C173        C  0.48598810  0.51713670  0.53584081     0.02300
C174        C  0.51125545  0.48865760  0.53316970     0.02300
C175        C  0.53796935  0.48959527  0.50647345     0.02300
C176        C  0.53600855  0.51604345  0.47969918     0.02300
C177        C  0.50991875  0.54367642  0.48160876     0.02300
C178        C  0.52994940  0.31852353  0.66089257     0.80300
N179        N  0.49745190  0.30043200  0.66335779    -0.78000
C180        C  0.46828261  0.31226300  0.64424958     0.82700
N181        N  0.47207050  0.34186379  0.62327072    -0.78000
C182        C  0.50403784  0.35989943  0.62081823     0.82800
N183        N  0.53282784  0.34804659  0.63964143    -0.79700
C184        C  0.31930352  0.67885505  0.51675304     0.80300
N185        N  0.34880055  0.65739342  0.51762142    -0.78000
C186        C  0.35706361  0.63517894  0.48989835     0.82700
N187        N  0.33554650  0.63491911  0.46035230    -0.78000
C188        C  0.30562999  0.65646637  0.45870027     0.82800
N189        N  0.29754941  0.67796964  0.48738812    -0.79700
C190        C  0.67333173  0.52555194  0.32241305     0.80300
N191        N  0.67226672  0.49510363  0.30156520    -0.78000
C192        C  0.65273772  0.46537664  0.31251845     0.82700
N193        N  0.63384392  0.46728626  0.34346651    -0.78000
C194        C  0.63484870  0.49740246  0.36389600     0.82800
N195        N  0.65436435  0.52641682  0.35328970    -0.79700
C196        C  0.48685199  0.69568628  0.33597413     0.80300
N197        N  0.51660429  0.71748107  0.33463665    -0.78000
C198        C  0.54544820  0.71053188  0.35599217     0.82700
N199        N  0.54385026  0.68190941  0.37847847    -0.78000
C200        C  0.51421769  0.66023409  0.38008445     0.82800
N201        N  0.48571281  0.66754851  0.35891407    -0.79700
C202        C  0.36335280  0.53035447  0.70050015     0.80300
N203        N  0.33885761  0.50275259  0.70399293    -0.78000
C204        C  0.34232786  0.47200417  0.68378254     0.82700
N205        N  0.36912743  0.47021229  0.65898050    -0.78000
C206        C  0.39289310  0.49792926  0.65519954     0.82800
N207        N  0.39005238  0.52743972  0.67613427    -0.79700
C208        C  0.67739610  0.33135210  0.53212238     0.80300
N209        N  0.65143856  0.35714202  0.53377727    -0.78000
C210        C  0.63132364  0.36547146  0.50486982     0.82700
N211        N  0.63726162  0.34797177  0.47374436    -0.78000
C212        C  0.66273773  0.32213157  0.47099269     0.82800
N213        N  0.68357811  0.31419337  0.50008556    -0.79700
C214        C  0.98718182  0.99747582  0.46657919     0.02300
C215        C  0.01258496  0.96897688  0.46853753     0.02300
C216        C  0.03630298  0.96664952  0.49822262     0.02300
C217        C  0.03448575  0.99336165  0.52573590     0.02300
C218        C  0.00980318  0.02269802  0.52285017     0.02300
C219        C  0.98762484  0.02572759  0.49218657     0.02300
C220        C  0.03226622  0.18650076  0.65898714     0.80300
N221        N  0.00258211  0.18928618  0.68048270    -0.78000
C222        C  0.97256403  0.16845870  0.67460024     0.82700
N223        N  0.97315542  0.14410677  0.64730514    -0.78000
C224        C  0.00280661  0.14070345  0.62584370     0.82800
N225        N  0.03232120  0.16193819  0.63198189    -0.79700
C226        C  0.19708428  0.01278582  0.66434719     0.80300
N227        N  0.20000749  0.98104859  0.68287965    -0.78000
C228        C  0.17558822  0.95356186  0.67741114     0.82700
N229        N  0.14838366  0.95840020  0.65388828    -0.78000
C230        C  0.14496167  0.98953929  0.63538839     0.82800
N231        N  0.16947050  0.01646559  0.64072821    -0.79700
C232        C  0.17085010  0.80180348  0.47722134     0.80300
N233        N  0.14701142  0.82953134  0.47559028    -0.78000
C234        C  0.12760374  0.83959262  0.50472532     0.82700
N235        N  0.13194341  0.82173915  0.53602148    -0.78000
C236        C  0.15582807  0.79405557  0.53844583     0.82800
N237        N  0.17607068  0.78471305  0.50906907    -0.79700
C238        C  0.84234480  0.17682755  0.52236778     0.80300
N239        N  0.86566860  0.14896076  0.51938565    -0.78000
C240        C  0.88226120  0.14127198  0.48793722     0.82700
N241        N  0.87562967  0.16208709  0.45883791    -0.78000
C242        C  0.85226810  0.19041925  0.46072158     0.80400
N243        N  0.83562903  0.19770588  0.49296959    -0.79700
C244        C  0.85338760  0.04604468  0.31244368     0.80300
N245        N  0.83344618  0.01729515  0.30074505    -0.78000
C246        C  0.83976162  0.98365823  0.31394086     0.82700
N247        N  0.86599359  0.97907192  0.33875809    -0.78000
C248        C  0.88625383  0.00763600  0.34999185     0.82800
N249        N  0.87942113  0.04107481  0.33720326    -0.79700
C250        C  0.02607660  0.83098381  0.30675315     0.80300
N251        N  0.03012366  0.85249096  0.33595842    -0.78000
C252        C  0.00323367  0.85664891  0.36035124     0.82700
N253        N  0.97147577  0.83901355  0.35538147    -0.78000
C254        C  0.96658389  0.81694681  0.32680006     0.82800
N255        N  0.99389398  0.81290657  0.30224473    -0.79700
O256        O  0.29948521  0.16309584  0.68932104    -0.80100
O257        O  0.23385760  0.32790844  0.69577480    -0.80100
O258        O  0.19752403  0.21282948  0.69550342    -0.80100
O259        O  0.32986492  0.27298877  0.72046998    -0.80100
O260        O  0.18734516  0.27020073  0.69648059    -0.80200
O261        O  0.30375650  0.23987030  0.67834180    -0.80100
O262        O  0.28078951  0.32433920  0.73311883    -0.80100
O263        O  0.24291525  0.15993754  0.71143470    -0.80100
C264        C  0.26934711  0.14609185  0.69316062     1.09600
C265        C  0.26145654  0.34221413  0.71052467     1.09500
C266        C  0.17630552  0.23841844  0.69007601     1.09600
C267        C  0.32769287  0.26317260  0.68794177     1.09500
O268        O  0.33760244  0.20969967  0.73909928    -0.80100
O269        O  0.18994571  0.28426327  0.74599897    -0.80200
O270        O  0.23507782  0.17718428  0.78735118    -0.80100
O271        O  0.26278709  0.29137931  0.80153332    -0.80100
O272        O  0.22162081  0.30736209  0.76198815    -0.80100
O273        O  0.28609999  0.17086433  0.75864209    -0.80100
O274        O  0.31983600  0.23833112  0.78800848    -0.80100
O275        O  0.18233894  0.22974546  0.77106324    -0.80100
Co276      Co  0.28850773  0.20538600  0.71722396     1.51500
Co277      Co  0.23723333  0.28115795  0.71625123     1.51700
Co278      Co  0.21711742  0.19906685  0.74246548     1.51600
Co279      Co  0.29492329  0.27771215  0.76089494     1.51500
O280        O  0.25709391  0.24006580  0.74169879    -1.42000
C281        C  0.34374147  0.22014911  0.77093113     1.09500
C282        C  0.17143938  0.26185264  0.76565191     1.09600
C283        C  0.26533179  0.16172756  0.78395610     1.09500
C284        C  0.23489580  0.30967734  0.79358021     1.09500
O285        O  0.76131290  0.18550201  0.29068748    -0.80100
O286        O  0.74907007  0.33051985  0.20746034    -0.80100
O287        O  0.80583375  0.25350891  0.19599065    -0.80100
O288        O  0.80421574  0.27045039  0.30324315    -0.80100
O289        O  0.75788864  0.27494456  0.16831431    -0.80200
O290        O  0.76014026  0.24079223  0.33115494    -0.80100
O291        O  0.79786272  0.31888737  0.23893593    -0.80100
O292        O  0.80673061  0.20835270  0.25997533    -0.80100
C293        C  0.79445445  0.18513381  0.28195176     1.09600
C294        C  0.78119165  0.33853864  0.21643132     1.09500
C295        C  0.79142460  0.26757172  0.16840606     1.09600
C296        C  0.79281311  0.25210726  0.33033024     1.09500
O297        O  0.68958779  0.26360748  0.30548948    -0.80100
O298        O  0.69237755  0.24025131  0.19281897    -0.80200
O299        O  0.74082365  0.17477687  0.23256527    -0.80100
O300        O  0.72646855  0.33662151  0.26595535    -0.80100
O301        O  0.68408108  0.30284169  0.24016648    -0.80100
O302        O  0.69266141  0.19967621  0.25777739    -0.80100
O303        O  0.73504728  0.29812095  0.32184281    -0.80100
O304        O  0.74262709  0.21344301  0.17649321    -0.80100
Co305      Co  0.72578455  0.22570483  0.29178716     1.51500
Co306      Co  0.72135773  0.28402742  0.20673698     1.51700
Co307      Co  0.77349419  0.21678698  0.21960140     1.51600
Co308      Co  0.76619737  0.30156531  0.27907211     1.51500
O309        O  0.74675454  0.25709848  0.24924176    -1.42000
C310        C  0.70274628  0.28765395  0.32634631     1.09500
C311        C  0.70925810  0.21877701  0.17191834     1.09600
C312        C  0.70755958  0.17293390  0.24182573     1.09500
C313        C  0.69378876  0.33197394  0.25575693     1.09500
O314        O  0.33522426  0.71627140  0.24347602    -0.80100
O315        O  0.15036659  0.72709263  0.28228395    -0.80100
O316        O  0.25584060  0.68933757  0.29729990    -0.80100
O317        O  0.23227051  0.68264400  0.20499606    -0.80100
O318        O  0.21088606  0.71373291  0.32764153    -0.80200
O319        O  0.28314316  0.70398150  0.19016466    -0.80100
O320        O  0.17957595  0.69104898  0.24864292    -0.80100
O321        O  0.32289453  0.72167470  0.30087954    -0.80100
C322        C  0.34603515  0.71624306  0.27622236     1.09600
C323        C  0.15002437  0.70040740  0.26153464     1.09500
C324        C  0.23564050  0.68963466  0.32484308     1.09600
C325        C  0.25602340  0.68524093  0.18134967     1.09500
O326        O  0.28136861  0.76375452  0.19773880    -0.80100
O327        O  0.23043196  0.79007856  0.31530272    -0.80200
O328        O  0.29996394  0.78658846  0.27914028    -0.80100
O329        O  0.16114172  0.76270167  0.22008590    -0.80100
O330        O  0.17761105  0.79575663  0.26676026    -0.80100
O331        O  0.30258330  0.77608027  0.22315631    -0.80100
O332        O  0.22461438  0.75634121  0.17639457    -0.80100
O333        O  0.26805705  0.75328733  0.33659924    -0.80100
Co334      Co  0.28205119  0.72855846  0.23939857     1.51500
Co335      Co  0.19503488  0.75583048  0.29578486     1.51700
Co336      Co  0.27638166  0.73709124  0.28512123     1.51600
Co337      Co  0.20096027  0.72456344  0.21426235     1.51500
O338        O  0.23122475  0.74655796  0.25419802    -1.42000
C339        C  0.25700919  0.76890830  0.17342724     1.09500
C340        C  0.24576255  0.77813133  0.34238748     1.09600
C341        C  0.31283647  0.79539507  0.24919607     1.09500
C342        C  0.15606104  0.78958872  0.24122746     1.09500
C343        C  0.05644783  0.80147590  0.25326749    -0.12200
C344        C  0.05712682  0.82756387  0.28076408     0.04800
C345        C  0.08876316  0.84936766  0.28380971    -0.07500
C346        C  0.12014872  0.84022995  0.26496329    -0.08300
C347        C  0.12120283  0.81004038  0.24218146    -0.02800
C348        C  0.08766828  0.79396751  0.23231446     0.04000
N349        N  0.08453009  0.77147431  0.20091918     0.66500
H350        H  0.03180567  0.78631071  0.24868710     0.15400
H351        H  0.14491839  0.85494197  0.27091440     0.15100
N352        N  0.09034245  0.88012562  0.30698946     0.74200
O353        O  0.10781046  0.77394216  0.17622413    -0.39200
O354        O  0.05475759  0.75613642  0.19391515    -0.39200
O355        O  0.10821939  0.87848322  0.33556708    -0.39900
O356        O  0.08057899  0.91053467  0.29544693    -0.39900
C357        C  0.82152475  0.10068749  0.33121770    -0.12200
C358        C  0.84184962  0.08306803  0.30496624     0.04800
C359        C  0.85037413  0.10099595  0.27296378    -0.07500
C360        C  0.83772428  0.13620930  0.26735303    -0.08300
C361        C  0.81538563  0.15319958  0.29278416    -0.02800
C362        C  0.80734972  0.13497661  0.32521525     0.04000
N363        N  0.78296365  0.14952622  0.35141005     0.66500
H364        H  0.81494647  0.08684345  0.35592463     0.15400
H365        H  0.84318718  0.14917647  0.24196582     0.15100
N366        N  0.87046402  0.08323795  0.24543861     0.74200
O367        O  0.74935626  0.14455681  0.34748499    -0.39200
O368        O  0.79467093  0.15619148  0.38233414    -0.39200
O369        O  0.85398227  0.06941843  0.21923594    -0.39900
O370        O  0.90448332  0.08653403  0.24434536    -0.39900
C371        C  0.84557583  0.22183769  0.36184403    -0.12200
C372        C  0.81484879  0.24412306  0.36327464     0.04800
C373        C  0.80007508  0.25152319  0.39757913    -0.07500
C374        C  0.81427169  0.23585816  0.42856409    -0.08300
C375        C  0.84308214  0.21151469  0.42723686    -0.02800
C376        C  0.85986790  0.20578038  0.39321647     0.04000
N377        N  0.89039404  0.18245967  0.38961990     0.66500
H378        H  0.85725249  0.21501838  0.33610763     0.15400
H379        H  0.80089704  0.24142751  0.45379533     0.15100
N380        N  0.76870654  0.27330379  0.40167813     0.74200
O381        O  0.88710312  0.15228019  0.37406911    -0.39200
O382        O  0.92090430  0.19232870  0.40133814    -0.39200
O383        O  0.73846098  0.25755326  0.40489436    -0.39900
O384        O  0.77258560  0.30459378  0.41468058    -0.39900
C385        C  0.19060415  0.78347845  0.37954310    -0.12200
C386        C  0.22861478  0.78350832  0.37809864     0.04800
C387        C  0.24800559  0.78663245  0.41037320    -0.07500
C388        C  0.22909754  0.79115363  0.44304368    -0.08300
C389        C  0.19093898  0.79172462  0.44407264    -0.02800
C390        C  0.17187061  0.78703846  0.41184728     0.04000
N391        N  0.13320530  0.78476817  0.41158147     0.66500
H392        H  0.17503298  0.77986654  0.35531121     0.15400
H393        H  0.24423716  0.79526782  0.46744470     0.15100
N394        N  0.28667585  0.78749609  0.41016140     0.74200
O395        O  0.11508796  0.81103977  0.40007972    -0.39200
O396        O  0.11801430  0.75431831  0.41526984    -0.39200
O397        O  0.30309504  0.81742560  0.40750597    -0.39900
O398        O  0.30405839  0.75958720  0.41864044    -0.39900
C399        C  0.26467198  0.08069658  0.70481258    -0.12200
C400        C  0.26325266  0.10894993  0.67991361     0.04800
C401        C  0.24378008  0.10356605  0.64823936    -0.07500
C402        C  0.22402195  0.07142196  0.64304360    -0.08300
C403        C  0.22304754  0.04388843  0.66910508    -0.02800
C404        C  0.24498902  0.04837838  0.69968711     0.04000
N405        N  0.24560276  0.02176358  0.72713619     0.66500
H406        H  0.27861071  0.08496061  0.72991362     0.15400
H407        H  0.20828960  0.06872035  0.61887949     0.15100
N408        N  0.24121143  0.13199048  0.62262357     0.74200
O409        O  0.27310496  0.00207450  0.73026117    -0.39200
O410        O  0.22257546  0.02293440  0.75212352    -0.39200
O411        O  0.26888760  0.14154927  0.60503050    -0.39900
O412        O  0.21263566  0.15039221  0.62075154    -0.39900
C413        C  0.08199623  0.23211382  0.64840003    -0.12200
C414        C  0.06672256  0.20417490  0.66911714     0.04800
C415        C  0.08643249  0.19030406  0.69787923    -0.07500
C416        C  0.12162893  0.20262806  0.70425250    -0.08300
C417        C  0.13774143  0.22958631  0.68295818    -0.02800
C418        C  0.11709976  0.24551521  0.65570727     0.04000
N419        N  0.13193026  0.27388396  0.63427682     0.66500
H420        H  0.06693488  0.24304862  0.62621354     0.15400
H421        H  0.13676885  0.19051139  0.72578909     0.15100
N422        N  0.07167637  0.16210827  0.71966055     0.74200
O423        O  0.14771422  0.26630422  0.60526573    -0.39200
O424        O  0.12365005  0.30626043  0.64101301    -0.39200
O425        O  0.07272722  0.12970273  0.70903525    -0.39900
O426        O  0.05487235  0.16991329  0.74805169    -0.39900
C427        C  0.98977130  0.90959497  0.44666265    -0.12200
C428        C  0.01206386  0.93984804  0.44078295     0.04800
C429        C  0.03272871  0.94150903  0.40892689    -0.07500
C430        C  0.03003450  0.91352775  0.38385862    -0.08300
C431        C  0.00707277  0.88369240  0.38938793    -0.02800
C432        C  0.98702753  0.88167894  0.42150193     0.04000
N433        N  0.96442147  0.85120471  0.42945733     0.66500
H434        H  0.97464176  0.90742710  0.47134034     0.15400
H435        H  0.04535941  0.91591488  0.35927102     0.15100
N436        N  0.05667702  0.97097003  0.40104800     0.74200
O437        O  0.97682924  0.82572311  0.44794900    -0.39200
O438        O  0.93069880  0.85326776  0.42465437    -0.39200
O439        O  0.09009672  0.96441565  0.39891391    -0.39900
O440        O  0.04464113  0.99698621  0.38311756    -0.39900
C441        C  0.97003617  0.01884272  0.40653230    -0.12200
C442        C  0.96080009  0.99856699  0.43669565     0.04800
C443        C  0.92697959  0.98029467  0.43770472    -0.07500
C444        C  0.90375885  0.98240567  0.40838477    -0.08300
C445        C  0.91303509  0.00318642  0.37848559    -0.02800
C446        C  0.94660518  0.02143296  0.37756724     0.04000
N447        N  0.95769827  0.04186175  0.34703394     0.66500
H448        H  0.99560573  0.03302606  0.40567317     0.15400
H449        H  0.87762020  0.96891046  0.40965691     0.15100
N450        N  0.91472857  0.96090631  0.46851233     0.74200
O451        O  0.95409795  0.07577430  0.34709969    -0.39200
O452        O  0.97690444  0.02706820  0.32322162    -0.39200
O453        O  0.89457841  0.97708540  0.49055731    -0.39900
O454        O  0.91197623  0.92695747  0.46643012    -0.39900
C455        C  0.92795901  0.05209387  0.50656030    -0.12200
C456        C  0.96128639  0.05618480  0.48921735     0.04800
C457        C  0.96772401  0.08803016  0.46904215    -0.07500
C458        C  0.94091187  0.11481925  0.46755341    -0.08300
C459        C  0.90808334  0.11089097  0.48622119    -0.02800
C460        C  0.90157894  0.07883295  0.50550172     0.04000
N461        N  0.86784494  0.07248463  0.52339210     0.66500
H462        H  0.92219589  0.02761248  0.52085584     0.15400
H463        H  0.94642055  0.13946492  0.45287585     0.15100
N464        N  0.00113813  0.09432701  0.45046231     0.74200
O465        O  0.84158535  0.05919787  0.50622224    -0.39200
O466        O  0.86646476  0.07351789  0.55705817    -0.39200
O467        O  0.00038003  0.09806309  0.41700634    -0.39900
O468        O  0.02705036  0.10867811  0.46722382    -0.39900
C469        C  0.98394779  0.07962490  0.60468391    -0.12200
C470        C  0.00423569  0.11130309  0.59872957     0.04800
C471        C  0.02725421  0.11286100  0.56854790    -0.07500
C472        C  0.02913290  0.08331774  0.54514471    -0.08300
C473        C  0.00843050  0.05189420  0.55068106    -0.02800
C474        C  0.98610970  0.04989532  0.58145744     0.04000
N475        N  0.96730743  0.01746201  0.59126357     0.66500
H476        H  0.96699443  0.07731788  0.62829160     0.15400
H477        H  0.04737968  0.08474945  0.52259216     0.15100
N478        N  0.04817809  0.14451924  0.56061889     0.74200
O479        O  0.93547198  0.01246730  0.58024323    -0.39200
O480        O  0.97663032  0.00185023  0.61963151    -0.39200
O481        O  0.08217379  0.14386820  0.56383087    -0.39900
O482        O  0.03362656  0.17043550  0.54437856    -0.39900
C483        C  0.08839236  0.96570223  0.60787565    -0.12200
C484        C  0.11538769  0.99274060  0.60875681     0.04800
C485        C  0.11425186  0.02058004  0.58306267    -0.07500
C486        C  0.08754271  0.01993812  0.55678105    -0.08300
C487        C  0.06075053  0.99286852  0.55583586    -0.02800
C488        C  0.06117461  0.96538895  0.58198610     0.04000
N489        N  0.03509408  0.93644115  0.58243392     0.66500
H490        H  0.08824286  0.94434493  0.62757351     0.15400
H491        H  0.08870196  0.04009739  0.53595156     0.15100
N492        N  0.14074853  0.04890249  0.58204931     0.74200
O493        O  0.00167749  0.94319330  0.58209822    -0.39200
O494        O  0.04525314  0.90457550  0.58881636    -0.39200
O495        O  0.16660463  0.04708316  0.55995825    -0.39900
O496        O  0.13418664  0.07857384  0.59745726    -0.39900
C497        C  0.04579290  0.90054168  0.50855958    -0.12200
C498        C  0.06107643  0.93470985  0.50108914     0.04800
C499        C  0.09906217  0.93726583  0.49597682    -0.07500
C500        C  0.12018949  0.90580410  0.49683794    -0.08300
C501        C  0.10440970  0.87182502  0.50313493    -0.02800
C502        C  0.06697692  0.86927883  0.50915272     0.04000
N503        N  0.05005185  0.83488239  0.51480744     0.66500
H504        H  0.01713755  0.89812852  0.51424392     0.15400
H505        H  0.14922826  0.90794965  0.49285984     0.15100
N506        N  0.11696016  0.97136224  0.49112730     0.74200
O507        O  0.04211129  0.82495339  0.54608903    -0.39200
O508        O  0.04780541  0.81252072  0.48935096    -0.39200
O509        O  0.14263239  0.98007194  0.51162366    -0.39900
O510        O  0.11320474  0.98834334  0.46229357    -0.39900
C511        C  0.69450616  0.33496612  0.41511533    -0.12200
C512        C  0.67260571  0.31100012  0.43434053     0.04800
C513        C  0.65445525  0.28301030  0.41576028    -0.07500
C514        C  0.66141441  0.27727564  0.37905810    -0.08300
C515        C  0.68533476  0.30011749  0.36020565    -0.02800
C516        C  0.70043645  0.33053925  0.37849440     0.04000
N517        N  0.72345364  0.35637439  0.36071055     0.66500
H518        H  0.70650409  0.35809308  0.42861576     0.15400
H519        H  0.64957908  0.25393332  0.36586582     0.15100
N520        N  0.62910086  0.26014874  0.43385258     0.74200
O521        O  0.71210643  0.37333719  0.33394105    -0.39200
O522        O  0.75397858  0.36461509  0.37352475    -0.39200
O523        O  0.59572559  0.26703883  0.43232072    -0.39900
O524        O  0.63929049  0.23011620  0.44594732    -0.39900
C525        C  0.29003002  0.38381569  0.66768665    -0.12200
C526        C  0.27394349  0.37872445  0.70102595     0.04800
C527        C  0.27781709  0.40563174  0.72727705    -0.07500
C528        C  0.29880310  0.43652515  0.72066279    -0.08300
C529        C  0.31684511  0.44096862  0.68796430    -0.02800
C530        C  0.31142015  0.41443019  0.66086370     0.04000
N531        N  0.32722394  0.41765610  0.62619368     0.66500
H532        H  0.28780809  0.36286895  0.64744785     0.15400
H533        H  0.30186415  0.45648726  0.74171841     0.15100
N534        N  0.26005439  0.40197062  0.76078623     0.74200
O535        O  0.35647944  0.40141564  0.61968772    -0.39200
O536        O  0.30693482  0.42580774  0.60049512    -0.39200
O537        O  0.27841591  0.40143473  0.78907096    -0.39900
O538        O  0.22631299  0.40655817  0.76233350    -0.39900
C539        C  0.44733217  0.69561092  0.28194788    -0.12200
C540        C  0.45340762  0.70530721  0.31780858     0.04800
C541        C  0.42519287  0.71980342  0.33830380    -0.07500
C542        C  0.39141913  0.72409872  0.32321782    -0.08300
C543        C  0.38410880  0.71296637  0.28792124    -0.02800
C544        C  0.41268199  0.69939921  0.26680419     0.04000
N545        N  0.40662843  0.68790654  0.23089345     0.66500
H546        H  0.46900610  0.68379767  0.26627230     0.15400
H547        H  0.37044197  0.73544850  0.34013654     0.15100
N548        N  0.42985812  0.72840961  0.37530073     0.74200
O549        O  0.41210533  0.70959004  0.20546817    -0.39200
O550        O  0.39336438  0.65697548  0.22472417    -0.39200
O551        O  0.43200627  0.76110622  0.38486993    -0.39900
O552        O  0.42352654  0.70444999  0.39847566    -0.39900
C553        C  0.64667825  0.36453471  0.28986002    -0.12200
C554        C  0.66943820  0.36324939  0.25997396     0.04800
C555        C  0.67873571  0.39599461  0.24276069    -0.07500
C556        C  0.67118353  0.42916015  0.25929054    -0.08300
C557        C  0.65290771  0.43058159  0.29204693    -0.02800
C558        C  0.63768814  0.39782609  0.30567906     0.04000
N559        N  0.61534633  0.39730578  0.33695995     0.66500
H560        H  0.63885860  0.33965234  0.30313048     0.15400
H561        H  0.68081522  0.45388596  0.24692499     0.15100
N562        N  0.69738409  0.39597367  0.20919249     0.74200
O563        O  0.58137930  0.39873034  0.33375333    -0.39200
O564        O  0.62876888  0.38840515  0.36654341    -0.39200
O565        O  0.68363759  0.37936718  0.18300481    -0.39900
O566        O  0.72219686  0.41888857  0.20357030    -0.39900
C567        C  0.23108361  0.67937765  0.39105014    -0.12200
C568        C  0.24768533  0.67036850  0.35822139     0.04800
C569        C  0.28070856  0.65096736  0.35960510    -0.07500
C570        C  0.29831840  0.64573796  0.39253137    -0.08300
C571        C  0.28340113  0.65809693  0.42500478    -0.02800
C572        C  0.24819490  0.67310941  0.42399288     0.04000
N573        N  0.22913384  0.68204692  0.45611294     0.66500
H574        H  0.20539922  0.69337990  0.39128780     0.15400
H575        H  0.32442769  0.63255549  0.39243213     0.15100
N576        N  0.29716941  0.63680253  0.32785891     0.74200
O577        O  0.23084179  0.71382288  0.46837610    -0.39200
O578        O  0.20528034  0.66056199  0.46796111    -0.39200
O579        O  0.33010181  0.64345494  0.32124293    -0.39900
O580        O  0.28117586  0.61205447  0.31065480    -0.39900
C581        C  0.37017777  0.31267966  0.67365819    -0.12200
C582        C  0.35750553  0.27776126  0.66465928     0.04800
C583        C  0.38083685  0.25518743  0.64453428    -0.07500
C584        C  0.41733324  0.26591246  0.63826853    -0.08300
C585        C  0.43067420  0.29920865  0.65134653    -0.02800
C586        C  0.40622720  0.32311090  0.66788600     0.04000
N587        N  0.41865005  0.35700393  0.68199383     0.66500
H588        H  0.35294966  0.33071309  0.68894608     0.15400
H589        H  0.43519165  0.24822706  0.62336093     0.15100
N590        N  0.36797854  0.22153468  0.63043689     0.74200
O591        O  0.41470499  0.38557609  0.66419052    -0.39200
O592        O  0.43811814  0.35759511  0.70958674    -0.39200
O593        O  0.35164257  0.22121970  0.60092306    -0.39900
O594        O  0.37893923  0.19215237  0.64336661    -0.39900
C595        C  0.42028601  0.55378969  0.48767434    -0.12200
C596        C  0.45088568  0.56755697  0.50571544     0.04800
C597        C  0.45056041  0.60416584  0.51672481    -0.07500
C598        C  0.41996329  0.62543762  0.51061529    -0.08300
C599        C  0.38936363  0.61161265  0.49307108    -0.02800
C600        C  0.38973424  0.57534869  0.48134645     0.04000
N601        N  0.35883094  0.55962579  0.46431792     0.66500
H602        H  0.42033024  0.52611248  0.47804911     0.15400
H603        H  0.42032874  0.65336399  0.51952026     0.15100
N604        N  0.48082624  0.62078139  0.53390573     0.74200
O605        O  0.35886976  0.55476612  0.43095081    -0.39200
O606        O  0.33093968  0.55182840  0.48241953    -0.39200
O607        O  0.50279896  0.63867395  0.51495036    -0.39900
O608        O  0.47738832  0.62957567  0.56630143    -0.39900
C609        C  0.42718001  0.50103427  0.56085372    -0.12200
C610        C  0.46100326  0.51690503  0.56607877     0.04800
C611        C  0.47297708  0.52537338  0.60079724    -0.07500
C612        C  0.45098561  0.51661964  0.62976340    -0.08300
C613        C  0.41706783  0.50031256  0.62455896    -0.02800
C614        C  0.40488112  0.49278894  0.58964498     0.04000
N615        N  0.36939068  0.47892748  0.58252382     0.66500
H616        H  0.41807699  0.49486221  0.53412244     0.15400
H617        H  0.45993536  0.52364651  0.65645541     0.15100
N618        N  0.50663414  0.54376085  0.60707595     0.74200
O619        O  0.34218695  0.49796530  0.59021453    -0.39200
O620        O  0.36575782  0.45299091  0.56077752    -0.39200
O621        O  0.50798149  0.57755845  0.60313693    -0.39900
O622        O  0.53000343  0.52917039  0.62666672    -0.39900
C623        C  0.54021982  0.62716614  0.43139449    -0.12200
C624        C  0.51298858  0.62965504  0.40539710     0.04800
C625        C  0.48511427  0.60324718  0.40468534    -0.07500
C626        C  0.48479212  0.57566943  0.42980810    -0.08300
C627        C  0.51153706  0.57369217  0.45593560    -0.02800
C628        C  0.53985547  0.59959437  0.45686747     0.04000
N629        N  0.56772207  0.59903951  0.48377158     0.66500
H630        H  0.56154389  0.64738614  0.43260384     0.15400
H631        H  0.46367594  0.55524089  0.42856893     0.15100
N632        N  0.45747447  0.60317950  0.37812228     0.74200
O633        O  0.59857288  0.61249168  0.47723341    -0.39200
O634        O  0.56115157  0.58746010  0.51483651    -0.39200
O635        O  0.46304312  0.58744867  0.34865946    -0.39900
O636        O  0.42576312  0.61269907  0.38643828    -0.39900
C637        C  0.59669663  0.52302250  0.45310166    -0.12200
C638        C  0.56036027  0.51330594  0.44868680     0.04800
C639        C  0.54849998  0.49843729  0.41601001    -0.07500
C640        C  0.57374793  0.49225884  0.38896927    -0.08300
C641        C  0.61033235  0.50088864  0.39406239    -0.02800
C642        C  0.62191657  0.51638937  0.42630963     0.04000
N643        N  0.65936397  0.52371889  0.43283735     0.66500
H644        H  0.60554292  0.53558934  0.47751912     0.15400
H645        H  0.56463002  0.48136349  0.36361664     0.15100
N646        N  0.51108404  0.49063178  0.40932508     0.74200
O647        O  0.67083700  0.55594271  0.43272208    -0.39200
O648        O  0.67900858  0.49910457  0.44541463    -0.39200
O649        O  0.49517380  0.50749983  0.38481953    -0.39900
O650        O  0.49740273  0.46136288  0.42032014    -0.39900
C651        C  0.55722218  0.43090547  0.48138778    -0.12200
C652        C  0.56488164  0.45990533  0.50423651     0.04800
C653        C  0.59507335  0.45787280  0.52723434    -0.07500
C654        C  0.61538959  0.42611038  0.52803606    -0.08300
C655        C  0.60694945  0.39674394  0.50567723    -0.02800
C656        C  0.57763240  0.39945029  0.48194092     0.04000
N657        N  0.56725126  0.37002794  0.45921133     0.66500
H658        H  0.53450678  0.43214865  0.46369627     0.15400
H659        H  0.63875737  0.42497741  0.54536593     0.15100
N660        N  0.60632889  0.48776802  0.54910866     0.74200
O661        O  0.54772965  0.34480599  0.47153522    -0.39200
O662        O  0.57202838  0.37246033  0.42591405    -0.39200
O663        O  0.61188062  0.48260037  0.58190552    -0.39900
O664        O  0.62169403  0.51444400  0.53448419    -0.39900
C665        C  0.52960441  0.45326993  0.58645098    -0.12200
C666        C  0.50789058  0.45588508  0.55614888     0.04800
C667        C  0.48532696  0.42635138  0.54677623    -0.07500
C668        C  0.48457505  0.39545504  0.56825084    -0.08300
C669        C  0.50664933  0.39278664  0.59853146    -0.02800
C670        C  0.52964366  0.42208471  0.60738796     0.04000
N671        N  0.55255702  0.42111832  0.63798291     0.66500
H672        H  0.54712866  0.47545104  0.59356778     0.15400
H673        H  0.46702912  0.37309821  0.56073670     0.15100
N674        N  0.46368494  0.42666001  0.51520774     0.74200
O675        O  0.58512531  0.41155526  0.63440549    -0.39200
O676        O  0.54260677  0.43655015  0.66645853    -0.39200
O677        O  0.47566386  0.41135264  0.48746837    -0.39900
O678        O  0.42990913  0.43035225  0.51841008    -0.39900
C679        C  0.84376237  0.30772758  0.09123861    -0.12200
C680        C  0.82275737  0.29545697  0.06179493     0.04800
C681        C  0.79660194  0.26829578  0.06862118    -0.07500
C682        C  0.79044163  0.25633383  0.10369620    -0.08300
C683        C  0.80955120  0.27068899  0.13303067    -0.02800
C684        C  0.83765648  0.29547651  0.12633055     0.04000
N685        N  0.85926019  0.30954903  0.15485804     0.66500
H686        H  0.86468574  0.32798651  0.08750298     0.15400
H687        H  0.76855045  0.23717529  0.10835527     0.15100
N688        N  0.77469029  0.25342134  0.04096305     0.74200
O689        O  0.87996794  0.28858142  0.17152177    -0.39200
O690        O  0.86318598  0.34328941  0.15854116    -0.39200
O691        O  0.78481698  0.22455567  0.02601294    -0.39900
O692        O  0.74155292  0.26145593  0.04040316    -0.39900
C693        C  0.09399859  0.28588460  0.83013533    -0.12200
C694        C  0.06983826  0.30375435  0.80727479     0.04800
C695        C  0.07918839  0.30675982  0.77083337    -0.07500
C696        C  0.11205642  0.29251722  0.75809540    -0.08300
C697        C  0.13615289  0.27449192  0.78081689    -0.02800
C698        C  0.12660450  0.27087649  0.81716520     0.04000
N699        N  0.15054855  0.25377253  0.84157959     0.66500
H700        H  0.08753508  0.28360416  0.85830101     0.15400
H701        H  0.11900434  0.29597838  0.73015539     0.15100
N702        N  0.05675818  0.32633235  0.74682765     0.74200
O703        O  0.14632669  0.22066200  0.84861398    -0.39200
O704        O  0.17135451  0.27286444  0.86064100    -0.39200
O705        O  0.06218792  0.35976603  0.74248118    -0.39900
O706        O  0.03682367  0.30928614  0.72518325    -0.39900
C707        C  0.78718977  0.38079073  0.16609185    -0.12200
C708        C  0.79490525  0.37360447  0.20206966     0.04800
C709        C  0.80460611  0.40303947  0.22438641    -0.07500
C710        C  0.80583403  0.43864178  0.21058188    -0.08300
C711        C  0.79654004  0.44568760  0.17488608    -0.02800
C712        C  0.78778192  0.41603414  0.15255694     0.04000
N713        N  0.77819565  0.42148553  0.11603735     0.66500
H714        H  0.77866371  0.35887936  0.14864486     0.15400
H715        H  0.81435472  0.46076043  0.22771300     0.15100
N716        N  0.81113258  0.39757896  0.26149536     0.74200
O717        O  0.80098736  0.41480126  0.09170521    -0.39200
O718        O  0.74531650  0.42544151  0.10800194    -0.39200
O719        O  0.84326465  0.39696118  0.27276040    -0.39900
O720        O  0.78527063  0.40015524  0.28349946    -0.39900
C721        C  0.05074198  0.68747975  0.23737804    -0.12200
C722        C  0.05432852  0.67590654  0.20171177     0.04800
C723        C  0.08914251  0.66850498  0.18797234    -0.07500
C724        C  0.11940829  0.67455367  0.20910656    -0.08300
C725        C  0.11629315  0.68772825  0.24419807    -0.02800
C726        C  0.08144291  0.69329550  0.25873762     0.04000
N727        N  0.07677405  0.70410431  0.29512054     0.66500
H728        H  0.02410071  0.69229647  0.24858349     0.15400
H729        H  0.14576917  0.67105954  0.19687132     0.15100
N730        N  0.09462778  0.65749989  0.15167543     0.74200
O731        O  0.07064449  0.73679394  0.30257605    -0.39200
O732        O  0.07183145  0.68027227  0.31870449    -0.39200
O733        O  0.10225477  0.68096198  0.12838331    -0.39900
O734        O  0.09928010  0.62446716  0.14453295    -0.39900
C735        C  0.22901253  0.39180493  0.85397357    -0.12200
C736        C  0.19863447  0.40837311  0.83871575     0.04800
C737        C  0.17517472  0.38735617  0.81769049    -0.07500
C738        C  0.18526375  0.35259927  0.80720371    -0.08300
C739        C  0.21846899  0.33748315  0.81781264    -0.02800
C740        C  0.23876128  0.35619421  0.84409651     0.04000
N741        N  0.26991217  0.34016304  0.85980793     0.66500
H742        H  0.24561377  0.40675284  0.87277577     0.15400
H743        H  0.16847444  0.33910673  0.78772318     0.15100
N744        N  0.14230604  0.40221661  0.80428237     0.74200
O745        O  0.30121278  0.34995670  0.85001943    -0.39200
O746        O  0.26616591  0.32101487  0.88742430    -0.39200
O747        O  0.14309797  0.42243278  0.77721520    -0.39900
O748        O  0.11327162  0.39861780  0.82187589    -0.39900
C749        C  0.20584862  0.64120930  0.10371877    -0.12200
C750        C  0.21280945  0.66521311  0.07508258     0.04800
C751        C  0.24040425  0.69163372  0.08045938    -0.07500
C752        C  0.25782842  0.69480947  0.11411089    -0.08300
C753        C  0.24755312  0.67338093  0.14355451    -0.02800
C754        C  0.22277871  0.64491238  0.13713370     0.04000
N755        N  0.21528341  0.61860277  0.16411159     0.66500
H756        H  0.18663115  0.61922859  0.10058340     0.15400
H757        H  0.27779458  0.71572017  0.11779438     0.15100
N758        N  0.24986997  0.71690522  0.05313079     0.74200
O759        O  0.18415790  0.61682723  0.17805646    -0.39200
O760        O  0.23688430  0.59267023  0.16820212    -0.39200
O761        O  0.22667408  0.73941757  0.04277962    -0.39900
O762        O  0.28278067  0.72178976  0.04508950    -0.39900
C763        C  0.07197508  0.51639392  0.93961402    -0.12200
C764        C  0.06745822  0.48718952  0.96286065     0.04800
C765        C  0.09096786  0.45723173  0.96030260    -0.07500
C766        C  0.11763293  0.45719403  0.93373106    -0.08300
C767        C  0.12110355  0.48580832  0.90932390    -0.02800
C768        C  0.09804091  0.51588000  0.91274986     0.04000
N769        N  0.09760810  0.54416517  0.88694636     0.66500
H770        H  0.05328052  0.53884933  0.94071568     0.15400
H771        H  0.13560421  0.43422335  0.93205981     0.15100
N772        N  0.08827662  0.42661063  0.98378597     0.74200
O773        O  0.07857519  0.54011005  0.85934395    -0.39200
O774        O  0.10841505  0.57543415  0.89554769    -0.39200
O775        O  0.09574407  0.39535353  0.97231851    -0.39900
O776        O  0.08231940  0.43090148  0.01669605    -0.39900
C777        C  0.05102272  0.58026146  0.00541307    -0.12200
C778        C  0.06165580  0.54523731  0.01540195     0.04800
C779        C  0.09850419  0.53950272  0.02422044    -0.07500
C780        C  0.12271166  0.56886636  0.02473046    -0.08300
C781        C  0.11164213  0.60369629  0.01557736    -0.02800
C782        C  0.07553377  0.60931680  0.00544410     0.04000
N783        N  0.06315305  0.64445149  0.99583560     0.66500
H784        H  0.02348455  0.58496733  0.99686948     0.15400
H785        H  0.15078358  0.56425842  0.03162549     0.15100
N786        N  0.11242893  0.50430845  0.03163640     0.74200
O787        O  0.06165376  0.65303721  0.96330477    -0.39200
O788        O  0.04685814  0.66350052  0.01878248    -0.39200
O789        O  0.14140666  0.49427524  0.01664308    -0.39900
O790        O  0.10085686  0.48697023  0.05830436    -0.39900
C791        C  0.97464643  0.57740218  0.05355182    -0.12200
C792        C  0.99814218  0.54864688  0.06144180     0.04800
C793        C  0.01982336  0.55132771  0.09229318    -0.07500
C794        C  0.01599479  0.58089091  0.11514452    -0.08300
C795        C  0.99254794  0.60949114  0.10748812    -0.02800
C796        C  0.97180952  0.60772218  0.07606536     0.04000
N797        N  0.94973537  0.63733322  0.06539525     0.66500
H798        H  0.96000028  0.57734190  0.02861951     0.15400
H799        H  0.03243802  0.58158379  0.13901290     0.15100
N800        N  0.04791775  0.52612525  0.09984453     0.74200
O801        O  0.96426269  0.66626292  0.05443610    -0.39200
O802        O  0.91569962  0.63416978  0.06567671    -0.39200
O803        O  0.07916984  0.53805269  0.10714699    -0.39900
O804        O  0.03989285  0.49401619  0.10797846    -0.39900
C805        C  0.91234511  0.52045699  0.04134285    -0.12200
C806        C  0.93983347  0.49694924  0.05215290     0.04800
C807        C  0.93637922  0.47887722  0.08511028    -0.07500
C808        C  0.90539237  0.48404655  0.10580362    -0.08300
C809        C  0.87732206  0.50636074  0.09423645    -0.02800
C810        C  0.88055425  0.52436462  0.06143081     0.04000
N811        N  0.85087083  0.54416947  0.04701633     0.66500
H812        H  0.91545287  0.53540573  0.01675030     0.15400
H813        H  0.90323482  0.47024828  0.13123083     0.15100
N814        N  0.96395836  0.45581426  0.09869993     0.74200
O815        O  0.85552545  0.57617938  0.03629948    -0.39200
O816        O  0.82108301  0.52827711  0.04120261    -0.39200
O817        O  0.96435189  0.42324717  0.08872104    -0.39900
O818        O  0.97759432  0.46351308  0.12861568    -0.39900
C819        C  0.88678750  0.41615835  0.97632268    -0.12200
C820        C  0.89274750  0.38342650  0.99377285     0.04800
C821        C  0.92512722  0.37883084  0.01290891    -0.07500
C822        C  0.95061349  0.40684643  0.01417270    -0.08300
C823        C  0.94447776  0.44015636  0.99764459    -0.02800
C824        C  0.91189613  0.44464332  0.97816777     0.04000
N825        N  0.90326149  0.47697606  0.95939153     0.66500
H826        H  0.86181782  0.42015717  0.96179675     0.15400
H827        H  0.97583566  0.40235379  0.02798610     0.15100
N828        N  0.93306703  0.34560972  0.03048931     0.74200
O829        O  0.90156982  0.47485358  0.92583967    -0.39200
O830        O  0.88241613  0.49912426  0.97458602    -0.39200
O831        O  0.94924463  0.32095211  0.01351027    -0.39900
O832        O  0.93128839  0.34409470  0.06410916    -0.39900
C833        C  0.01456397  0.40169968  0.95697269    -0.12200
C834        C  0.00697241  0.43820781  0.94961481     0.04800
C835        C  0.00196100  0.44845366  0.91358010    -0.07500
C836        C  0.00378261  0.42235180  0.88637097    -0.08300
C837        C  0.01118064  0.38614192  0.89396111    -0.02800
C838        C  0.01673911  0.37578545  0.92953324     0.04000
N839        N  0.02344116  0.33884767  0.93819616     0.66500
H840        H  0.01937075  0.39329301  0.98415525     0.15400
H841        H  0.99909018  0.43042430  0.85899172     0.15100
N842        N  0.99553253  0.48515264  0.90372650     0.74200
O843        O  0.05545755  0.32714535  0.93790210    -0.39200
O844        O  0.99726409  0.31689146  0.94098308    -0.39200
O845        O  0.01897206  0.50122343  0.88494502    -0.39900
O846        O  0.96342310  0.49623359  0.90251104    -0.39900
C847        C  0.26137222  0.80904552  0.07907855    -0.12200
C848        C  0.29805668  0.80312509  0.07084401     0.04800
C849        C  0.32093261  0.78942912  0.09727044    -0.07500
C850        C  0.30706974  0.78085571  0.13086145    -0.08300
C851        C  0.27008298  0.78516223  0.13923787    -0.02800
C852        C  0.24720710  0.80010399  0.11305677     0.04000
N853        N  0.21019819  0.80785998  0.12101689     0.66500
H854        H  0.24383160  0.82089803  0.05926443     0.15400
H855        H  0.32542392  0.76901142  0.14994901     0.15100
N856        N  0.35833630  0.78281619  0.08988469     0.74200
O857        O  0.18561592  0.78646497  0.11064223    -0.39200
O858        O  0.20181875  0.83888423  0.13238789    -0.39200
O859        O  0.38222309  0.80376875  0.10247949    -0.39900
O860        O  0.36761595  0.75316641  0.07590455    -0.39900
C861        C  0.37567192  0.81154800  0.26507539    -0.12200
C862        C  0.34470610  0.81987349  0.24508685     0.04800
C863        C  0.34887080  0.84219261  0.21493019    -0.07500
C864        C  0.38375967  0.85171660  0.20280508    -0.08300
C865        C  0.41514928  0.83997639  0.22054617    -0.02800
C866        C  0.41059819  0.82135356  0.25323061     0.04000
N867        N  0.44102184  0.81140566  0.27438122     0.66500
H868        H  0.37306804  0.79468790  0.28855840     0.15400
H869        H  0.38614058  0.86769777  0.17871742     0.15100
N870        N  0.31788983  0.85624145  0.19702326     0.74200
O871        O  0.44983523  0.83071038  0.30084295    -0.39200
O872        O  0.45474657  0.78047088  0.27063673    -0.39200
O873        O  0.29687861  0.87710032  0.21384404    -0.39900
O874        O  0.31627852  0.85501522  0.16339799    -0.39900
C875        C  0.44352364  0.19740738  0.77762649    -0.12200
C876        C  0.44552149  0.18195818  0.81158495     0.04800
C877        C  0.41431839  0.18380263  0.83413843    -0.07500
C878        C  0.38176796  0.19817725  0.82132668    -0.08300
C879        C  0.37946266  0.21132044  0.78653185    -0.02800
C880        C  0.41118960  0.21223829  0.76519272     0.04000
N881        N  0.41130040  0.22911391  0.73100093     0.66500
H882        H  0.46699864  0.19742463  0.76015283     0.15400
H883        H  0.35784811  0.19772566  0.83823383     0.15100
N884        N  0.41481286  0.17104432  0.87007989     0.74200
O885        O  0.40889062  0.26306968  0.72936230    -0.39200
O886        O  0.42225433  0.21169543  0.70405189    -0.39200
O887        O  0.42466412  0.19228095  0.89469154    -0.39900
O888        O  0.39741313  0.14266468  0.87799762    -0.39900
C889        C  0.26449579  0.06684978  0.82369053    -0.12200
C890        C  0.30130525  0.05808088  0.81965290     0.04800
C891        C  0.32588357  0.08535274  0.80935924    -0.07500
C892        C  0.31373124  0.12034769  0.80282006    -0.08300
C893        C  0.27667349  0.12911654  0.80439810    -0.02800
C894        C  0.25196422  0.10199977  0.81580893     0.04000
N895        N  0.21402369  0.10903429  0.81761605     0.66500
H896        H  0.24541923  0.04631799  0.83253053     0.15400
H897        H  0.33336201  0.14012796  0.79349492     0.15100
N898        N  0.36304302  0.07704177  0.80246507     0.74200
O899        O  0.19428597  0.10212057  0.79101213    -0.39200
O900        O  0.19952199  0.11648085  0.84730581    -0.39200
O901        O  0.37242221  0.06601146  0.77187752    -0.39900
O902        O  0.38696839  0.08547237  0.82498371    -0.39900
C903        C  0.70023563  0.15924829  0.09007879    -0.12200
C904        C  0.68132893  0.18152994  0.06680718     0.04800
C905        C  0.66686155  0.21423701  0.07993448    -0.07500
C906        C  0.67340922  0.22503431  0.11553926    -0.08300
C907        C  0.69393875  0.20331112  0.13849270    -0.02800
C908        C  0.70686487  0.16968903  0.12533973     0.04000
N909        N  0.72714598  0.14563739  0.14727262     0.66500
H910        H  0.71001814  0.13326815  0.08074223     0.15400
H911        H  0.66379422  0.25109823  0.12471421     0.15100
N912        N  0.64529209  0.23651511  0.05753349     0.74200
O913        O  0.71307468  0.11568172  0.15574112    -0.39200
O914        O  0.76117937  0.14888279  0.14822401    -0.39200
O915        O  0.61121889  0.23396523  0.05892842    -0.39900
O916        O  0.65986156  0.26231009  0.04067151    -0.39900
C917        C  0.64502952  0.09824834  0.20682347    -0.12200
C918        C  0.66785769  0.06776233  0.20950307     0.04800
C919        C  0.70034376  0.07186295  0.22897215    -0.07500
C920        C  0.71068024  0.10605271  0.24195562    -0.08300
C921        C  0.68948629  0.13705149  0.23637532    -0.02800
C922        C  0.65542140  0.13254033  0.22016084     0.04000
N923        N  0.63218692  0.16271866  0.21474310     0.66500
H924        H  0.61946441  0.09592858  0.19295662     0.15400
H925        H  0.73681379  0.10874882  0.25483268     0.15100
N926        N  0.72487889  0.04250575  0.23323475     0.74200
O927        O  0.62949131  0.17609179  0.18394475    -0.39200
O928        O  0.60852860  0.17008372  0.23804088    -0.39200
O929        O  0.75177879  0.03976158  0.21249334    -0.39900
O930        O  0.72386193  0.02411333  0.26153765    -0.39900
C931        C  0.44195030  0.98316985  0.92168857    -0.12200
C932        C  0.43030194  0.99532107  0.95534899     0.04800
C933        C  0.39316823  0.00327189  0.96060682    -0.07500
C934        C  0.36957957  0.00210857  0.93138184    -0.08300
C935        C  0.38184925  0.99150909  0.89753139    -0.02800
C936        C  0.41804218  0.98071077  0.89305328     0.04000
N937        N  0.43117581  0.96803885  0.85935332     0.66500
H938        H  0.46993188  0.97540028  0.91768753     0.15400
H939        H  0.34141221  0.00933713  0.93516413     0.15100
N940        N  0.37869442  0.01215368  0.99505914     0.74200
O941        O  0.44399070  0.99033911  0.83713787    -0.39200
O942        O  0.43651630  0.93466833  0.85478846    -0.39200
O943        O  0.38984130  0.03988741  0.01144298    -0.39900
O944        O  0.35034913  0.99630934  0.00598849    -0.39900
C945        C  0.43292974  0.91696462  0.98229932    -0.12200
C946        C  0.43187586  0.94110842  0.01128452     0.04800
C947        C  0.40649002  0.93477146  0.03904881    -0.07500
C948        C  0.38242442  0.90534498  0.03642010    -0.08300
C949        C  0.38315668  0.88141236  0.00709920    -0.02800
C950        C  0.40941853  0.88723622  0.98015611     0.04000
N951        N  0.41443916  0.86207708  0.95161100     0.66500
H952        H  0.45343536  0.92034203  0.96175264     0.15400
H953        H  0.36276553  0.90142965  0.05765124     0.15100
N954        N  0.40482051  0.95720116  0.07033051     0.74200
O955        O  0.40783794  0.87174426  0.92012078    -0.39200
O956        O  0.43301062  0.83407953  0.95674108    -0.39200
O957        O  0.40095592  0.99091431  0.06751278    -0.39900
O958        O  0.40141888  0.94277521  0.10068350    -0.39900
C959        C  0.57649714  0.04147925  0.98359172    -0.12200
C960        C  0.54508363  0.05144210  0.00250230     0.04800
C961        C  0.54374957  0.08616189  0.01833524    -0.07500
C962        C  0.57438008  0.10853845  0.01740346    -0.08300
C963        C  0.60615191  0.09778626  0.99995910    -0.02800
C964        C  0.60697763  0.06422194  0.98225905     0.04000
N965        N  0.63909248  0.05215471  0.96449875     0.66500
H966        H  0.57731463  0.01588229  0.96972085     0.15400
H967        H  0.57303654  0.13498882  0.02992812     0.15100
N968        N  0.51122643  0.10049402  0.03338623     0.74200
O969        O  0.66628340  0.04286828  0.98246815    -0.39200
O970        O  0.64104448  0.05267688  0.93086210    -0.39200
O971        O  0.50492625  0.09588231  0.06615868    -0.39900
O972        O  0.49740655  0.12754649  0.01838645    -0.39900
C973        C  0.51641238  0.03966483  0.92355700    -0.12200
C974        C  0.48927269  0.04758343  0.94883776     0.04800
C975        C  0.46638143  0.07723645  0.94265734    -0.07500
C976        C  0.47339157  0.09997000  0.91375314    -0.08300
C977        C  0.50148284  0.09306223  0.88924117    -0.02800
C978        C  0.52283418  0.06206782  0.89410399     0.04000
N979        N  0.55008587  0.05206383  0.86882167     0.66500
H980        H  0.53251183  0.01552503  0.92652634     0.15400
H981        H  0.45629702  0.12331327  0.91056511     0.15100
N982        N  0.43447718  0.08355211  0.96349659     0.74200
O983        O  0.58285602  0.05926855  0.87527552    -0.39200
O984        O  0.54232675  0.03013243  0.84407683    -0.39200
O985        O  0.43719906  0.09636315  0.99459512    -0.39900
O986        O  0.40431902  0.08520635  0.94785742    -0.39900
C987        C  0.49382338  0.88502949  0.09297772    -0.12200
C988        C  0.48805230  0.89936396  0.12717000     0.04800
C989        C  0.48270435  0.93672714  0.13117741    -0.07500
C990        C  0.48330987  0.95913710  0.10117116    -0.08300
C991        C  0.48916894  0.94514408  0.06668165    -0.02800
C992        C  0.49413804  0.90729299  0.06262087     0.04000
N993        N  0.49819603  0.89057787  0.02825433     0.66500
H994        H  0.49751713  0.85613529  0.08979397     0.15400
H995        H  0.47797929  0.98766696  0.10475813     0.15100
N996        N  0.47672447  0.95234490  0.16561903     0.74200
O997        O  0.52363827  0.90010027  0.00768841    -0.39200
O998        O  0.48044686  0.86215581  0.02113621    -0.39200
O999        O  0.50297307  0.96628391  0.18230258    -0.39900
O1000       O  0.44478029  0.95816252  0.17618395    -0.39900
C1001       C  0.60479717  0.98379687  0.08298732    -0.12200
C1002       C  0.60036052  0.00748948  0.11198697     0.04800
C1003       C  0.56872990  0.02847703  0.11414563    -0.07500
C1004       C  0.54172547  0.02396484  0.08849528    -0.08300
C1005       C  0.54593359  0.99997845  0.05973271    -0.02800
C1006       C  0.57815463  0.97978235  0.05693378     0.04000
N1007       N  0.58407351  0.95386216  0.02913862     0.66500
H1008       H  0.62912774  0.96776116  0.08064098     0.15400
H1009       H  0.51664285  0.03841319  0.09172939     0.15100
N1010       N  0.56287543  0.05346062  0.14274271     0.74200
O1011       O  0.58727517  0.92112130  0.03786148    -0.39200
O1012       O  0.59916282  0.96421055  0.00065771    -0.39200
O1013       O  0.57000710  0.08653270  0.13801092    -0.39900
O1014       O  0.54362480  0.04409298  0.16911036    -0.39900
C1015       C  0.81700853  0.94605546  0.26402089    -0.12200
C1016       C  0.81926541  0.95186522  0.30081342     0.04800
C1017       C  0.80547714  0.92532518  0.32435951    -0.07500
C1018       C  0.79132336  0.89269444  0.31071237    -0.08300
C1019       C  0.79042271  0.88616385  0.27371653    -0.02800
C1020       C  0.80292489  0.91368145  0.25032010     0.04000
N1021       N  0.80236479  0.90890833  0.21242951     0.66500
H1022       H  0.82756919  0.96623447  0.24571798     0.15400
H1023       H  0.78172773  0.87214567  0.32909001     0.15100
N1024       N  0.80536897  0.93145378  0.36211712     0.74200
O1025       O  0.77278227  0.91037134  0.19586126    -0.39200
O1026       O  0.83171524  0.90667287  0.19516629    -0.39200
O1027       O  0.78759142  0.95738794  0.37523831    -0.39900
O1028       O  0.82334526  0.91124231  0.38238430    -0.39900
C1029       C  0.68138227  0.92389727  0.21793368    -0.12200
C1030       C  0.68277840  0.93537565  0.18258448     0.04800
C1031       C  0.69318473  0.91011964  0.15585782    -0.07500
C1032       C  0.70302525  0.87455972  0.16519823    -0.08300
C1033       C  0.70125496  0.86289883  0.20077915    -0.02800
C1034       C  0.68964746  0.88831624  0.22732733     0.04000
N1035       N  0.68715825  0.87950760  0.26448823     0.66500
H1036       H  0.67260756  0.94250742  0.23863795     0.15400
H1037       H  0.71201291  0.85604331  0.14453945     0.15100
N1038       N  0.69465522  0.92033542  0.11914017     0.74200
O1039       O  0.71222892  0.89008640  0.28475993    -0.39200
O1040       O  0.65615383  0.87500877  0.27811190    -0.39200
O1041       O  0.72406387  0.93199228  0.10611542    -0.39900
O1042       O  0.66960830  0.91035084  0.09845479    -0.39900
C1043       C  0.89558729  0.75344264  0.20195687    -0.12200
C1044       C  0.86542982  0.74629319  0.18065571     0.04800
C1045       C  0.86998521  0.72885077  0.14742681    -0.07500
C1046       C  0.90364028  0.71272541  0.13974004    -0.08300
C1047       C  0.93296729  0.71582056  0.16359793    -0.02800
C1048       C  0.92937202  0.73935257  0.19330658     0.04000
N1049       N  0.95919622  0.74849080  0.21577781     0.66500
H1050       H  0.89235803  0.76808462  0.22693844     0.15400
H1051       H  0.90666110  0.69695898  0.11550321     0.15100
N1052       N  0.84100485  0.72705040  0.12185479     0.74200
O1053       O  0.97699184  0.77698818  0.20932510    -0.39200
O1054       O  0.96184916  0.73382541  0.24601297    -0.39200
O1055       O  0.81657459  0.75076782  0.12202280    -0.39900
O1056       O  0.84255395  0.70523808  0.09588564    -0.39900
C1057       C  0.86547241  0.81273159  0.31283733    -0.12200
C1058       C  0.85855362  0.77537050  0.31056082     0.04800
C1059       C  0.88734107  0.75128615  0.31683916    -0.07500
C1060       C  0.92282870  0.76485601  0.32145766    -0.08300
C1061       C  0.92978566  0.80225114  0.32074894    -0.02800
C1062       C  0.90048840  0.82622487  0.31771282     0.04000
N1063       N  0.90627326  0.86450856  0.31683270     0.66500
H1064       H  0.84386444  0.83175921  0.30806251     0.15400
H1065       H  0.94492646  0.74621559  0.32551329     0.15100
N1066       N  0.88122137  0.71312639  0.31731610     0.74200
O1067       O  0.91379196  0.87969377  0.28757220    -0.39200
O1068       O  0.89789198  0.88357310  0.34360555    -0.39200
O1069       O  0.87415909  0.69767235  0.34654943    -0.39900
O1070       O  0.88870776  0.69433650  0.29011030    -0.39900
C1071       C  0.73369318  0.60826154  0.30981360    -0.12200
C1072       C  0.70897643  0.63264464  0.29493177     0.04800
C1073       C  0.67275351  0.62087358  0.28922169    -0.07500
C1074       C  0.66299673  0.58490067  0.29580983    -0.08300
C1075       C  0.68790133  0.56032648  0.30948175    -0.02800
C1076       C  0.72315322  0.57247955  0.31772335     0.04000
N1077       N  0.74813381  0.54908569  0.33495826     0.66500
H1078       H  0.76140544  0.61670794  0.31462166     0.15400
H1079       H  0.63518848  0.57637889  0.29148615     0.15100
N1080       N  0.64552889  0.64498073  0.27632195     0.74200
O1081       O  0.77130163  0.53221543  0.31660111    -0.39200
O1082       O  0.75093154  0.54996115  0.36851872    -0.39200
O1083       O  0.62722816  0.63669154  0.24908392    -0.39900
O1084       O  0.63810529  0.67347335  0.29341186    -0.39900
C1085       C  0.78263730  0.64661607  0.14825929    -0.12200
C1086       C  0.74887065  0.64912903  0.16549818     0.04800
C1087       C  0.73017644  0.61618754  0.17238360    -0.07500
C1088       C  0.74657902  0.58242798  0.16510331    -0.08300
C1089       C  0.78177581  0.58008414  0.15097505    -0.02800
C1090       C  0.79948672  0.61311884  0.14176314     0.04000
N1091       N  0.83628871  0.61373888  0.12964520     0.66500
H1092       H  0.79846382  0.67106446  0.14445468     0.15400
H1093       H  0.73189542  0.55780752  0.17152743     0.15100
N1094       N  0.69559612  0.61632389  0.18962267     0.74200
O1095       O  0.84376556  0.62644621  0.09926346    -0.39200
O1096       O  0.86147913  0.60864931  0.15168310    -0.39200
O1097       O  0.66879224  0.62935945  0.17350252    -0.39900
O1098       O  0.69017526  0.59598150  0.21610261    -0.39900
C1099       C  0.60654795  0.81413100  0.23073407    -0.12200
C1100       C  0.61419518  0.77876344  0.21986077     0.04800
C1101       C  0.58663109  0.75953881  0.20116873    -0.07500
C1102       C  0.55308412  0.77612435  0.19435701    -0.08300
C1103       C  0.54624542  0.81166504  0.20558231    -0.02800
C1104       C  0.57344735  0.83068514  0.22410582     0.04000
N1105       N  0.56732757  0.86679014  0.23629318     0.66500
H1106       H  0.62764539  0.82999203  0.24581293     0.15400
H1107       H  0.53252668  0.76141896  0.17913666     0.15100
N1108       N  0.59274728  0.72391764  0.18763469     0.74200
O1109       O  0.54703386  0.87235387  0.26294233    -0.39200
O1110       O  0.57888316  0.89319316  0.21816000    -0.39200
O1111       O  0.57788542  0.69714494  0.20268967    -0.39900
O1112       O  0.60757381  0.71987860  0.15745279    -0.39900
C1113       C  0.61690558  0.77888250  0.32678995    -0.12200
C1114       C  0.64837376  0.76024442  0.33609466     0.04800
C1115       C  0.64571415  0.72967545  0.35800315    -0.07500
C1116       C  0.61161931  0.71554614  0.36649806    -0.08300
C1117       C  0.57984105  0.73127198  0.35302298    -0.02800
C1118       C  0.58264849  0.76460985  0.33483278     0.04000
N1119       N  0.55135813  0.78335081  0.32263704     0.66500
H1120       H  0.61881055  0.80260817  0.30993813     0.15400
H1121       H  0.61041565  0.69072650  0.38175149     0.15100
N1122       N  0.67743402  0.71163556  0.37016311     0.74200
O1123       O  0.53999629  0.81026964  0.34009490    -0.39200
O1124       O  0.54042611  0.77829828  0.29112794    -0.39200
O1125       O  0.69333585  0.72327788  0.39768468    -0.39900
O1126       O  0.68457314  0.68037073  0.35866406    -0.39900
C1127       C  0.87257553  0.30552138  0.82167582    -0.12200
C1128       C  0.86301625  0.31001925  0.78572887     0.04800
C1129       C  0.89009241  0.32161322  0.76140929    -0.07500
C1130       C  0.92602749  0.32717769  0.77315490    -0.08300
C1131       C  0.93549341  0.32146904  0.80899413    -0.02800
C1132       C  0.90808072  0.31110785  0.83340646     0.04000
N1133       N  0.91644733  0.30324857  0.86979000     0.66500
H1134       H  0.85264122  0.29522895  0.84052059     0.15400
H1135       H  0.94658677  0.33580326  0.75420274     0.15100
N1136       N  0.88208645  0.32578065  0.72440794     0.74200
O1137       O  0.90752201  0.32531182  0.89402046    -0.39200
O1138       O  0.92544758  0.27154543  0.87817802    -0.39200
O1139       O  0.87820053  0.35712772  0.71186359    -0.39900
O1140       O  0.88630303  0.29940266  0.70335480    -0.39900
C1141       C  0.90911351  0.14885726  0.69170691    -0.12200
C1142       C  0.93897948  0.17256615  0.69692166     0.04800
C1143       C  0.93504625  0.20101398  0.72203627    -0.07500
C1144       C  0.90107439  0.20807930  0.73698753    -0.08300
C1145       C  0.87066425  0.18663249  0.72888401    -0.02800
C1146       C  0.87538533  0.15523241  0.70833860     0.04000
N1147       N  0.84604468  0.13028374  0.70362450     0.66500
H1148       H  0.91164643  0.12563503  0.67417761     0.15400
H1149       H  0.89797605  0.23195225  0.75362972     0.15100
N1150       N  0.96464530  0.22413754  0.73166765     0.74200
O1151       O  0.83181977  0.12601381  0.67334705    -0.39200
O1152       O  0.83428619  0.11239282  0.72993811    -0.39200
O1153       O  0.96718495  0.25528720  0.71819585    -0.39900
O1154       O  0.98351269  0.21645933  0.75855698    -0.39900
C1155       C  0.72775897  0.15191420  0.91888625    -0.12200
C1156       C  0.69729849  0.16789683  0.93517611     0.04800
C1157       C  0.67635549  0.19194039  0.91528489    -0.07500
C1158       C  0.68570282  0.19977105  0.87998242    -0.08300
C1159       C  0.71688235  0.18518478  0.86347586    -0.02800
C1160       C  0.73800336  0.16080449  0.88343253     0.04000
N1161       N  0.77003663  0.14540128  0.86849859     0.66500
H1162       H  0.74354463  0.13249642  0.93365096     0.15400
H1163       H  0.66868635  0.21850058  0.86566153     0.15100
N1164       N  0.64499616  0.20843251  0.93070749     0.74200
O1165       O  0.80033696  0.16030551  0.87410948    -0.39200
O1166       O  0.76881224  0.11399386  0.85524989    -0.39200
O1167       O  0.64857417  0.23364703  0.95325557    -0.39900
O1168       O  0.61398594  0.19529054  0.92467732    -0.39900
C1169       C  0.75311494  0.28821060  0.89128121    -0.12200
C1170       C  0.76300679  0.30941399  0.86154116     0.04800
C1171       C  0.78454737  0.34031634  0.86777489    -0.07500
C1172       C  0.79918322  0.34661883  0.90212851    -0.08300
C1173       C  0.79230982  0.32297801  0.93128721    -0.02800
C1174       C  0.76716530  0.29464941  0.92556330     0.04000
N1175       N  0.75708756  0.27048200  0.95347232     0.66500
H1176       H  0.73636389  0.26435938  0.88733362     0.15400
H1177       H  0.81687137  0.36984875  0.90558475     0.15100
N1178       N  0.79200459  0.36535972  0.83965840     0.74200
O1179       O  0.72751974  0.27555386  0.96969536    -0.39200
O1180       O  0.77152854  0.23968875  0.95450614    -0.39200
O1181       O  0.76787856  0.38762119  0.83097767    -0.39900
O1182       O  0.82426722  0.37100387  0.82981553    -0.39900
C1183       C  0.61495516  0.17708976  0.74768406    -0.12200
C1184       C  0.64639279  0.16442784  0.76441492     0.04800
C1185       C  0.64229829  0.14036332  0.79332207    -0.07500
C1186       C  0.60736373  0.13316743  0.80729948    -0.08300
C1187       C  0.57595882  0.14879887  0.79264180    -0.02800
C1188       C  0.58019283  0.16949388  0.76114912     0.04000
N1189       N  0.54978703  0.18442643  0.74311223     0.66500
H1190       H  0.61748037  0.19564808  0.72544924     0.15400
H1191       H  0.60499421  0.11587624  0.83045275     0.15100
N1192       N  0.67314523  0.12332869  0.80891632     0.74200
O1193       O  0.54261375  0.21752521  0.74709126    -0.39200
O1194       O  0.53569686  0.16708914  0.71757158    -0.39200
O1195       O  0.67385539  0.11741542  0.84208437    -0.39900
O1196       O  0.69596279  0.10786839  0.78893528    -0.39900
C1197       C  0.61243918  0.31190557  0.72178003    -0.12200
C1198       C  0.63433190  0.28780447  0.70232090     0.04800
C1199       C  0.62024368  0.27294292  0.67009424    -0.07500
C1200       C  0.58543997  0.28186687  0.65849989    -0.08300
C1201       C  0.56347891  0.30532487  0.67810230    -0.02800
C1202       C  0.57736330  0.32081692  0.70982310     0.04000
N1203       N  0.55595820  0.34534310  0.73036388     0.66500
H1204       H  0.62212566  0.32309784  0.74677161     0.15400
H1205       H  0.57578971  0.27093885  0.63334973     0.15100
N1206       N  0.64115606  0.24908057  0.64816673     0.74200
O1207       O  0.53552072  0.33328547  0.75473519    -0.39200
O1208       O  0.56219430  0.37887568  0.72849557    -0.39200
O1209       O  0.63657028  0.21536681  0.65114809    -0.39900
O1210       O  0.65610054  0.26130380  0.62031662    -0.39900
C1211       C  0.73719000  0.28542821  0.60179837    -0.12200
C1212       C  0.72900532  0.30533917  0.63300459     0.04800
C1213       C  0.70785024  0.33655969  0.62968802    -0.07500
C1214       C  0.69281627  0.34529459  0.59631099    -0.08300
C1215       C  0.69836541  0.32344170  0.56554917    -0.02800
C1216       C  0.72213548  0.29388537  0.56856227     0.04000
N1217       N  0.72917409  0.27031148  0.53905549     0.66500
H1218       H  0.75357284  0.26128444  0.60368205     0.15400
H1219       H  0.67557629  0.36882168  0.59498059     0.15100
N1220       N  0.69957125  0.35847029  0.66010211     0.74200
O1221       O  0.75830271  0.27380650  0.52159114    -0.39200
O1222       O  0.71048955  0.24182913  0.53543971    -0.39200
O1223       O  0.72087193  0.38390320  0.66851793    -0.39900
O1224       O  0.66784382  0.35815803  0.67276046    -0.39900
C1225       C  0.79514540  0.16647435  0.57042765    -0.12200
C1226       C  0.82671088  0.18453217  0.55847583     0.04800
C1227       C  0.84664199  0.20492281  0.58347592    -0.07500
C1228       C  0.83427454  0.20832389  0.61883212    -0.08300
C1229       C  0.80177275  0.19189326  0.63072616    -0.02800
C1230       C  0.78244057  0.17023127  0.60606117     0.04000
N1231       N  0.74927111  0.15303643  0.61625547     0.66500
H1232       H  0.78021832  0.14943018  0.55198285     0.15400
H1233       H  0.84974039  0.22525407  0.63699352     0.15100
N1234       N  0.87957413  0.22270033  0.57325861     0.74200
O1235       O  0.71956483  0.16824508  0.60971980    -0.39200
O1236       O  0.74941699  0.12024605  0.62545079    -0.39200
O1237       O  0.87939704  0.25614993  0.56670641    -0.39900
O1238       O  0.90938553  0.20683263  0.57744894    -0.39900
C1239       C  0.29126392  0.73696195  0.90441491    -0.12200
C1240       C  0.31689936  0.74091871  0.87698186     0.04800
C1241       C  0.34770644  0.76250885  0.88317475    -0.07500
C1242       C  0.35119139  0.78145309  0.91567348    -0.08300
C1243       C  0.32420859  0.77945660  0.94252357    -0.02800
C1244       C  0.29422306  0.75610169  0.93665925     0.04000
N1245       N  0.26501600  0.75325621  0.96170386     0.66500
H1246       H  0.26691951  0.72118397  0.89957619     0.15400
H1247       H  0.37503102  0.79817661  0.91960632     0.15100
N1248       N  0.37545848  0.76568981  0.85663430     0.74200
O1249       O  0.24450792  0.77998209  0.96677211    -0.39200
O1250       O  0.25471945  0.72231982  0.97175120    -0.39200
O1251       O  0.38143117  0.79580289  0.84194424    -0.39900
O1252       O  0.39832688  0.74069863  0.85320740    -0.39900
C1253       C  0.20208840  0.67095136  0.88198765    -0.12200
C1254       C  0.19470257  0.70642254  0.87066206     0.04800
C1255       C  0.18006663  0.73078242  0.89606885    -0.07500
C1256       C  0.17548483  0.72012458  0.93215723    -0.08300
C1257       C  0.18480213  0.68512165  0.94351424    -0.02800
C1258       C  0.19708315  0.66023598  0.91757889     0.04000
N1259       N  0.20534155  0.62385507  0.92719901     0.66500
H1260       H  0.21328729  0.65153490  0.86325631     0.15400
H1261       H  0.16423945  0.73910616  0.95125143     0.15100
N1262       N  0.17064348  0.76665919  0.88586852     0.74200
O1263       O  0.18170831  0.59936424  0.92326216    -0.39200
O1264       O  0.23778002  0.61521543  0.93295106    -0.39200
O1265       O  0.14196186  0.77203128  0.86854990    -0.39900
O1266       O  0.19242619  0.79250014  0.89138502    -0.39900
C1267       C  0.17419138  0.85172675  0.69399194    -0.12200
C1268       C  0.18951719  0.84944739  0.72793566     0.04800
C1269       C  0.19564583  0.88177195  0.74728362    -0.07500
C1270       C  0.19107864  0.91554058  0.73064924    -0.08300
C1271       C  0.17877565  0.91772773  0.69529625    -0.02800
C1272       C  0.16846085  0.88520623  0.67765151     0.04000
N1273       N  0.15445875  0.88530112  0.64210326     0.66500
H1274       H  0.16849931  0.82732232  0.67913256     0.15400
H1275       H  0.19740351  0.94006604  0.74533580     0.15100
N1276       N  0.20772874  0.88064070  0.78344787     0.74200
O1277       O  0.17596294  0.88772693  0.61590484    -0.39200
O1278       O  0.12191312  0.87619477  0.63679830    -0.39200
O1279       O  0.23846958  0.89321502  0.79149177    -0.39900
O1280       O  0.18527565  0.87338212  0.80795928    -0.39900
C1281       C  0.32761415  0.86031075  0.79641270    -0.12200
C1282       C  0.31531699  0.85964489  0.76122820     0.04800
C1283       C  0.31015006  0.89284979  0.74354590    -0.07500
C1284       C  0.31509988  0.92577058  0.76230402    -0.08300
C1285       C  0.32503650  0.92618558  0.79858112    -0.02800
C1286       C  0.33198675  0.89257431  0.81516855     0.04000
N1287       N  0.34239561  0.89013783  0.85167604     0.66500
H1288       H  0.33120358  0.83511406  0.81061808     0.15400
H1289       H  0.31113446  0.95094313  0.74847969     0.15100
N1290       N  0.29824260  0.89362421  0.70734758     0.74200
O1291       O  0.31839326  0.88593672  0.87545080    -0.39200
O1292       O  0.37483296  0.88273337  0.85868043    -0.39200
O1293       O  0.26607106  0.90230338  0.70048297    -0.39900
O1294       O  0.32139284  0.89303450  0.68246300    -0.39900
C1295       C  0.32253690  0.72707017  0.60731104    -0.12200
C1296       C  0.28763044  0.71931303  0.62049204     0.04800
C1297       C  0.26221140  0.70269882  0.59657422    -0.07500
C1298       C  0.27267668  0.69348631  0.56175764    -0.08300
C1299       C  0.30821343  0.69811882  0.54996253    -0.02800
C1300       C  0.33323243  0.71572019  0.57280655     0.04000
N1301       N  0.36989996  0.72133633  0.56172054     0.66500
H1302       H  0.34235685  0.73971324  0.62465257     0.15400
H1303       H  0.25332102  0.67964870  0.54472343     0.15100
N1304       N  0.22577650  0.69351032  0.60680955     0.74200
O1305       O  0.37825688  0.74939142  0.54437815    -0.39200
O1306       O  0.39459040  0.70185259  0.57440363    -0.39200
O1307       O  0.20029955  0.70444869  0.58743509    -0.39900
O1308       O  0.22022352  0.66557539  0.62536340    -0.39900
C1309       C  0.15486962  0.75404036  0.63325743    -0.12200
C1310       C  0.18826291  0.76712404  0.64631943     0.04800
C1311       C  0.20987010  0.78903141  0.62258279    -0.07500
C1312       C  0.19903383  0.79493657  0.58749828    -0.08300
C1313       C  0.16637362  0.78171120  0.57460019    -0.02800
C1314       C  0.14353820  0.76182188  0.59792712     0.04000
N1315       N  0.10981375  0.74765434  0.58548015     0.66500
H1316       H  0.13786325  0.73725713  0.65014887     0.15400
H1317       H  0.21601147  0.81157603  0.57033441     0.15100
N1318       N  0.24305985  0.80633637  0.63305873     0.74200
O1319       O  0.10918700  0.71834805  0.56810552    -0.39200
O1320       O  0.08051048  0.76133503  0.59627373    -0.39200
O1321       O  0.27185123  0.79887301  0.61637145    -0.39900
O1322       O  0.24156479  0.83589207  0.64991799    -0.39900
C1323       C  0.35070770  0.62089448  0.74780385    -0.12200
C1324       C  0.33240288  0.63972841  0.72068155     0.04800
C1325       C  0.32961024  0.62349538  0.68673288    -0.07500
C1326       C  0.33944665  0.58774503  0.68174472    -0.08300
C1327       C  0.35349723  0.56752208  0.70965355    -0.02800
C1328       C  0.36176599  0.58476622  0.74220522     0.04000
N1329       N  0.37855890  0.56518660  0.77035327     0.66500
H1330       H  0.35317018  0.63277017  0.77417926     0.15400
H1331       H  0.33553554  0.57542334  0.65567622     0.15100
N1332       N  0.31530951  0.64238733  0.65701814     0.74200
O1333       O  0.41253422  0.56638055  0.77363794    -0.39200
O1334       O  0.36040220  0.54225271  0.78791665    -0.39200
O1335       O  0.33745167  0.65483901  0.63437022    -0.39900
O1336       O  0.28356912  0.63479026  0.64711798    -0.39900
C1337       C  0.17543959  0.60070972  0.78867015    -0.12200
C1338       C  0.21235610  0.60943909  0.78678109     0.04800
C1339       C  0.23762261  0.58175360  0.79438011    -0.07500
C1340       C  0.22605479  0.54781067  0.80630217    -0.08300
C1341       C  0.18939477  0.53969880  0.81006385    -0.02800
C1342       C  0.16370018  0.56592478  0.79937155     0.04000
N1343       N  0.12594433  0.55703832  0.79709168     0.66500
H1344       H  0.15567196  0.62081934  0.78130946     0.15400
H1345       H  0.24614390  0.52786845  0.81341142     0.15100
N1346       N  0.27516571  0.58613875  0.78681661     0.74200
O1347       O  0.10253215  0.58114478  0.80276512    -0.39200
O1348       O  0.11631651  0.52780839  0.78227959    -0.39200
O1349       O  0.29659337  0.59400817  0.81186669    -0.39900
O1350       O  0.28735568  0.57142937  0.75887619    -0.39900
loop_ 
_geom_bond_atom_site_label_1 
_geom_bond_atom_site_label_2 
_geom_bond_distance 
_geom_bond_site_symmetry_2 
_ccdc_geom_bond_type 
O1            C9   1.276       .  A
O1          Co21   1.984       .  S
O2           C10   1.277       .  A
O2          Co22   1.926       .  S
O3           C11   1.250       .  A
O3          Co23   1.956       .  S
O4           C12   1.303       .  A
O4          Co24   2.099       .  S
O5           C11   1.276       .  A
O5          Co22   2.043       .  S
O6           C12   1.285       .  A
O6          Co21   1.912       .  S
O7           C10   1.293       .  A
O7          Co24   2.059       .  S
O8            C9   1.278       .  A
O8          Co23   2.005       .  S
C9         C1324   1.477       .  S
C10        C1282   1.480       .  S
C11        C1296   1.503       .  S
C12        C1240   1.477       .  S
O13          C26   1.252       .  A
O13         Co21   2.010       .  S
O14          C27   1.300       .  A
O14         Co22   2.051       .  S
O15          C28   1.291       .  A
O15         Co23   2.020       .  S
O16          C29   1.264       .  A
O16         Co24   1.986       .  S
O17          C29   1.286       .  A
O17         Co22   2.049       .  S
O18          C28   1.278       .  A
O18         Co21   1.995       .  S
O19          C26   1.257       .  A
O19         Co24   1.997       .  S
O20          C27   1.301       .  A
O20         Co23   2.021       .  S
Co21         O25   1.946       .  S
Co22         O25   1.922       .  S
Co23         O25   2.046       .  S
Co24         O25   2.145       .  S
C26        C1254   1.502       .  S
C27        C1310   1.516       .  S
C28        C1338   1.497       .  S
C29        C1268   1.484       .  S
O30          C38   1.281       .  A
O30         Co50   2.024       .  S
O31          C39   1.277       .  A
O31         Co51   2.013       .  S
O32          C40   1.276       .  A
O32         Co52   2.008       .  S
O33          C41   1.277       .  A
O33         Co53   2.015       .  S
O34          C40   1.277       .  A
O34         Co51   1.992       .  S
O35          C41   1.282       .  A
O35         Co50   2.005       .  S
O36          C39   1.263       .  A
O36         Co53   1.983       .  S
O37          C38   1.263       .  A
O37         Co52   1.986       .  S
C38        C1229   1.502       .  S
C39        C1159   1.501       .  S
C40        C1145   1.478       .  S
C41        C1184   1.488       .  S
O42          C55   1.263       .  A
O42         Co50   1.991       .  S
O43          C56   1.264       .  A
O43         Co51   1.988       .  S
O44          C57   1.282       .  A
O44         Co52   2.008       .  S
O45          C58   1.285       .  A
O45         Co53   2.020       .  S
O46          C58   1.274       .  A
O46         Co51   2.007       .  S
O47          C57   1.275       .  A
O47         Co50   2.008       .  S
O48          C55   1.279       .  A
O48         Co53   2.015       .  S
O49          C56   1.276       .  A
O49         Co52   2.002       .  S
Co50         O54   2.116       .  S
Co51         O54   2.113       .  S
Co52         O54   2.112       .  S
Co53         O54   2.111       .  S
C55        C1198   1.498       .  S
C56        C1128   1.484       .  S
C57        C1212   1.491       .  S
C58        C1170   1.498       .  S
O59          C67   1.278       .  A
O59         Co79   1.887       .  S
O60          C68   1.272       .  A
O60         Co80   1.967       .  S
O61          C69   1.282       .  A
O61         Co81   2.025       .  S
O62          C70   1.276       .  A
O62         Co82   1.984       .  S
O63          C69   1.270       .  A
O63         Co80   1.990       .  S
O64          C70   1.300       .  A
O64         Co79   2.041       .  S
O65          C68   1.280       .  A
O65         Co82   2.011       .  S
O66          C67   1.328       .  A
O66         Co81   2.212       .  S
C67        C1100   1.503       .  S
C68        C1044   1.464       .  S
C69        C1033   1.499       .  S
C70        C1086   1.496       .  S
O71          C84   1.259       .  A
O71         Co79   1.957       .  S
O72          C85   1.274       .  A
O72         Co80   1.847       .  S
O73          C86   1.271       .  A
O73         Co81   1.874       .  S
O74          C87   1.267       .  A
O74         Co82   1.990       .  S
O75          C87   1.262       .  A
O75         Co80   1.984       .  S
O76          C86   1.305       .  A
O76         Co79   2.147       .  S
O77          C84   1.276       .  A
O77         Co82   2.021       .  S
O78          C85   1.320       .  A
O78         Co81   2.156       .  S
Co79         O83   1.911       .  S
Co80         O83   1.905       .  S
Co81         O83   1.966       .  S
Co82         O83   1.996       .  S
C84        C1072   1.487       .  S
C85        C1019   1.490       .  S
C86        C1114   1.461       .  S
C87        C1058   1.484       .  S
C88        C1005   1.490       .  S
C88          C89   1.423       .  A
C88          C93   1.417   1_565  A
C89         C991   1.500       .  S
C89          C90   1.425       .  A
C90         C946   1.496       .  S
C90          C91   1.426   1_554  A
C91         C932   1.492       .  S
C91          C92   1.421   1_565  A
C92         C974   1.494       .  S
C92          C93   1.414   1_556  A
C93         C960   1.498       .  S
C94         C918   1.506       .  S
C94          N95   1.371       .  A
C94          N99   1.362       .  A
N95          C96   1.370   1_545  A
C96        C1030   1.490       .  S
C96          N97   1.350       .  A
N97          C98   1.354   1_565  A
C98        C1002   1.476       .  S
C98          N99   1.358       .  A
C100        C904   1.476       .  S
C100        N101   1.352       .  A
C100        N105   1.368       .  A
N101        C102   1.352       .  A
C102        C963   1.471   1_554  S
C102        N103   1.356   1_554  A
N103        C104   1.359       .  A
C104       C1156   1.482       .  S
C104        N105   1.370   1_556  A
C106        C890   1.483       .  S
C106        N107   1.358       .  A
C106        N111   1.371   1_545  A
N107        C108   1.352   1_545  A
C108        C935   1.469       .  S
C108        N109   1.350       .  A
N109        C110   1.357       .  A
C110       C1285   1.498       .  S
C110        N111   1.372       .  A
C112        C876   1.496       .  S
C112        N113   1.348       .  A
C112        N117   1.368       .  A
N113        C114   1.352       .  A
C114        C977   1.484       .  S
C114        N115   1.360       .  A
N115        C116   1.365       .  A
C116       C1187   1.508       .  S
C116        N117   1.370       .  A
C118        C865   1.501       .  S
C118        N119   1.361       .  A
C118        N123   1.367       .  A
N119        C120   1.357       .  A
C120        C988   1.475       .  S
C120        N121   1.356       .  A
N121        C122   1.358       .  A
C122       C1103   1.481       .  S
C122        N123   1.364       .  A
C124        C848   1.476       .  S
C124        N125   1.353       .  A
C124        N129   1.362       .  A
N125        C126   1.356       .  A
C126        C949   1.492       .  S
C126        N127   1.361   1_554  A
N127        C128   1.363       .  A
C128       C1243   1.500       .  S
C128        N129   1.366   1_556  A
C130        C778   1.505       .  S
C130        C131   1.423   1_554  A
C130        C135   1.417       .  A
C131        C764   1.478       .  S
C131        C132   1.423       .  A
C132        C834   1.506       .  S
C132        C133   1.419   1_456  A
C133        C823   1.496   1_554  S
C133        C134   1.422       .  A
C134        C806   1.483       .  S
C134        C135   1.419   1_655  A
C135        C792   1.501   1_455  S
C136       C1257   1.496       .  S
C136        N137   1.356       .  A
C136        N141   1.379   1_556  A
N137        C138   1.351   1_556  A
C138        C781   1.473       .  S
C138        N139   1.355       .  A
N139        C140   1.361       .  A
C140        C750   1.525       .  S
C140        N141   1.378       .  A
C142       C1341   1.487       .  S
C142        N143   1.371       .  A
C142        N147   1.354       .  A
N143        C144   1.369       .  A
C144        C736   1.476       .  S
C144        N145   1.348       .  A
N145        C146   1.353       .  A
C146        C767   1.476       .  S
C146        N147   1.355       .  A
C148       C1047   1.491       .  S
C148        N149   1.366       .  A
C148        N153   1.362       .  A
N149        C150   1.360       .  A
C150        C795   1.484       .  S
C150        N151   1.352   1_655  A
N151        C152   1.347       .  A
C152        C722   1.475       .  S
C152        N153   1.355   1_455  A
C154       C1089   1.514       .  S
C154        N155   1.362       .  A
C154        N159   1.382       .  A
N155        C156   1.355       .  A
C156        C809   1.465       .  S
C156        N157   1.343       .  A
N157        C158   1.344       .  A
C158        C711   1.486       .  S
C158        N159   1.376       .  A
C160        C694   1.497       .  S
C160        N161   1.365       .  A
C160        N165   1.372       .  A
N161        C162   1.361       .  A
C162        C837   1.474       .  S
C162        N163   1.352   1_455  A
N163        C164   1.354       .  A
C164       C1131   1.488       .  S
C164        N165   1.368   1_655  A
C166        C680   1.513       .  S
C166        N167   1.380   1_554  A
C166        N171   1.353       .  A
N167        C168   1.382       .  A
C168       C1173   1.518       .  S
C168        N169   1.360       .  A
N169        C170   1.354       .  A
C170        C820   1.474       .  S
C170        N171   1.346   1_556  A
C172        C596   1.505       .  S
C172        C173   1.414       .  A
C172        C177   1.408       .  A
C173        C610   1.457       .  S
C173        C174   1.415       .  A
C174        C666   1.493       .  S
C174        C175   1.401       .  A
C175        C652   1.488       .  S
C175        C176   1.406       .  A
C176        C638   1.469       .  S
C176        C177   1.411       .  A
C177        C627   1.472       .  S
C178       C1201   1.485       .  S
C178        N179   1.372       .  A
C178        N183   1.357       .  A
N179        C180   1.371       .  A
C180        C585   1.490       .  S
C180        N181   1.356       .  A
N181        C182   1.354       .  A
C182        C669   1.480       .  S
C182        N183   1.355       .  A
C184       C1299   1.488       .  S
C184        N185   1.353       .  A
C184        N189   1.365       .  A
N185        C186   1.356       .  A
C186        C599   1.488       .  S
C186        N187   1.366       .  A
N187        C188   1.368       .  A
C188        C571   1.511       .  S
C188        N189   1.367       .  A
C190       C1075   1.473       .  S
C190        N191   1.368       .  A
C190        N195   1.349       .  A
N191        C192   1.373       .  A
C192        C557   1.495       .  S
C192        N193   1.351       .  A
N193        C194   1.349       .  A
C194        C641   1.450       .  S
C194        N195   1.348       .  A
C196        C540   1.460       .  S
C196        N197   1.358       .  A
C196        N201   1.352       .  A
N197        C198   1.362       .  A
C198       C1117   1.483       .  S
C198        N199   1.356       .  A
N199        C200   1.353       .  A
C200        C624   1.479       .  S
C200        N201   1.351       .  A
C202       C1327   1.463       .  S
C202        N203   1.365       .  A
C202        N207   1.344       .  A
N203        C204   1.370       .  A
C204        C529   1.487       .  S
C204        N205   1.355       .  A
N205        C206   1.352       .  A
C206        C613   1.452       .  S
C206        N207   1.345       .  A
C208       C1215   1.506       .  S
C208        N209   1.358       .  A
C208        N213   1.374       .  A
N209        C210   1.354       .  A
C210        C655   1.470       .  S
C210        N211   1.349       .  A
N211        C212   1.349       .  A
C212        C512   1.476       .  S
C212        N213   1.371       .  A
C214        C442   1.488       .  S
C214        C215   1.418   1_655  A
C214        C219   1.415   1_565  A
C215        C428   1.494       .  S
C215        C216   1.422       .  A
C216        C498   1.503       .  S
C216        C217   1.426       .  A
C217        C487   1.491       .  S
C217        C218   1.426   1_565  A
C218        C473   1.499       .  S
C218        C219   1.419   1_455  A
C219        C456   1.498       .  S
C220        C414   1.477       .  S
C220        N221   1.361       .  A
C220        N225   1.357       .  A
N221        C222   1.363   1_455  A
C222       C1142   1.500       .  S
C222        N223   1.360       .  A
N223        C224   1.361   1_655  A
C224        C470   1.486       .  S
C224        N225   1.359       .  A
C226        C403   1.502       .  S
C226        N227   1.371   1_545  A
C226        N231   1.361       .  A
N227        C228   1.369       .  A
C228       C1271   1.493       .  S
C228        N229   1.353       .  A
N229        C230   1.353       .  A
C230        C484   1.488       .  S
C230        N231   1.355   1_565  A
C232        C389   1.490       .  S
C232        N233   1.358       .  A
C232        N237   1.367       .  A
N233        C234   1.354       .  A
C234        C501   1.474       .  S
C234        N235   1.358       .  A
N235        C236   1.359       .  A
C236       C1313   1.485       .  S
C236        N237   1.371       .  A
C238       C1226   1.495       .  S
C238        N239   1.351       .  A
C238        N243   1.372       .  A
N239        C240   1.355       .  A
C240        C459   1.480       .  S
C240        N241   1.361       .  A
N241        C242   1.363       .  A
C242        C375   1.520       .  S
C242        N243   1.378       .  A
C244        C358   1.465       .  S
C244        N245   1.361       .  A
C244        N249   1.353       .  A
N245        C246   1.362   1_545  A
C246       C1016   1.477       .  S
C246        N247   1.358       .  A
N247        C248   1.357   1_565  A
C248        C445   1.469       .  S
C248        N249   1.354       .  A
C250        C344   1.505       .  S
C250        N251   1.358       .  A
C250        N255   1.370   1_455  A
N251        C252   1.355       .  A
C252        C431   1.481       .  S
C252        N253   1.351   1_455  A
N253        C254   1.355       .  A
C254       C1061   1.478       .  S
C254        N255   1.370       .  A
O256        C264   1.282       .  A
O256       Co276   1.922       .  S
O257        C265   1.272       .  A
O257       Co277   1.899       .  S
O258        C266   1.251       .  A
O258       Co278   1.975       .  S
O259        C267   1.272       .  A
O259       Co279   1.992       .  S
O260        C266   1.263       .  A
O260       Co277   2.026       .  S
O261        C267   1.282       .  A
O261       Co276   2.014       .  S
O262        C265   1.296       .  A
O262       Co279   2.088       .  S
O263        C264   1.296       .  A
O263       Co278   2.085       .  S
C264        C400   1.474       .  S
C265        C526   1.468       .  S
C266        C417   1.484       .  S
C267        C582   1.499       .  S
O268        C281   1.273       .  A
O268       Co276   1.998       .  S
O269        C282   1.299       .  A
O269       Co277   2.070       .  S
O270        C283   1.264       .  A
O270       Co278   1.988       .  S
O271        C284   1.273       .  A
O271       Co279   1.991       .  S
O272        C284   1.285       .  A
O272       Co277   2.047       .  S
O273        C283   1.262       .  A
O273       Co276   2.014       .  S
O274        C281   1.280       .  A
O274       Co279   2.009       .  S
O275        C282   1.274       .  A
O275       Co278   2.020       .  S
Co276       O280   1.957       .  S
Co277       O280   1.947       .  S
Co278       O280   2.108       .  S
Co279       O280   2.093       .  S
C281        C879   1.484       .  S
C282        C697   1.496       .  S
C283        C893   1.494       .  S
C284        C739   1.498       .  S
O285        C293   1.265       .  A
O285       Co305   1.990       .  S
O286        C294   1.267       .  A
O286       Co306   1.994       .  S
O287        C295   1.279       .  A
O287       Co307   2.006       .  S
O288        C296   1.289       .  A
O288       Co308   2.039       .  S
O289        C295   1.270       .  A
O289       Co306   1.996       .  S
O290        C296   1.274       .  A
O290       Co305   2.024       .  S
O291        C294   1.278       .  A
O291       Co308   2.003       .  S
O292        C293   1.271       .  A
O292       Co307   1.979       .  S
C293        C361   1.475       .  S
C294        C708   1.490       .  S
C295        C683   1.485       .  S
C296        C372   1.513       .  S
O297        C310   1.276       .  A
O297       Co305   2.007       .  S
O298        C311   1.276       .  A
O298       Co306   2.003       .  S
O299        C312   1.276       .  A
O299       Co307   2.019       .  S
O300        C313   1.278       .  A
O300       Co308   2.028       .  S
O301        C313   1.273       .  A
O301       Co306   1.983       .  S
O302        C312   1.279       .  A
O302       Co305   2.008       .  S
O303        C310   1.262       .  A
O303       Co308   1.971       .  S
O304        C311   1.262       .  A
O304       Co307   1.984       .  S
Co305       O309   2.115       .  S
Co306       O309   2.109       .  S
Co307       O309   2.103       .  S
Co308       O309   2.108       .  S
C310        C515   1.491       .  S
C311        C907   1.487       .  S
C312        C921   1.495       .  S
C313        C554   1.477       .  S
O314        C322   1.292       .  A
O314       Co334   2.025       .  S
O315        C323   1.254       .  A
O315       Co335   2.021       .  S
O316        C324   1.270       .  A
O316       Co336   1.971       .  S
O317        C325   1.246       .  A
O317       Co337   1.969       .  S
O318        C324   1.285       .  A
O318       Co335   2.055       .  S
O319        C325   1.258       .  A
O319       Co334   2.053       .  S
O320        C323   1.242       .  A
O320       Co337   1.950       .  S
O321        C322   1.271       .  A
O321       Co336   1.910       .  S
C322        C543   1.481       .  S
C323        C725   1.480       .  S
C324        C568   1.512       .  S
C325        C753   1.514       .  S
O326        C339   1.299       .  A
O326       Co334   2.036       .  S
O327        C340   1.248       .  A
O327       Co335   1.956       .  S
O328        C341   1.259       .  A
O328       Co336   2.034       .  S
O329        C342   1.283       .  A
O329       Co337   2.055       .  S
O330        C342   1.266       .  A
O330       Co335   1.951       .  S
O331        C341   1.264       .  A
O331       Co334   2.004       .  S
O332        C339   1.284       .  A
O332       Co337   2.034       .  S
O333        C340   1.255       .  A
O333       Co336   2.039       .  S
Co334       O338   2.068       .  S
Co335       O338   2.076       .  S
Co336       O338   2.068       .  S
Co337       O338   2.035       .  S
C339        C851   1.493       .  S
C340        C386   1.490       .  S
C341        C862   1.487       .  S
C342        C347   1.498       .  S
C343        C344   1.408       .  A
C343        C348   1.419       .  A
C343        H350   1.079       .  S
C344        C345   1.419       .  A
C345        C346   1.396       .  A
C345        N352   1.429       .  S
C346        C347   1.403       .  A
C346        H351   1.084       .  S
C347        C348   1.420       .  A
C348        N349   1.442       .  S
N349        O353   1.262       .  A
N349        O354   1.262       .  A
N352        O356   1.262       .  A
N352        O355   1.262       .  A
C357        C358   1.396       .  A
C357        C362   1.395       .  A
C357        H364   1.085       .  S
C358        C359   1.405       .  A
C359        C360   1.403       .  A
C359        N366   1.427       .  S
C360        C361   1.406       .  A
C360        H365   1.084       .  S
C361        C362   1.420       .  A
C362        N363   1.434       .  S
N363        O367   1.262       .  A
N363        O368   1.261       .  A
N366        O370   1.261       .  A
N366        O369   1.262       .  A
C371        C372   1.408       .  A
C371        C376   1.424       .  A
C371        H378   1.083       .  S
C372        C373   1.419       .  A
C373        C374   1.405       .  A
C373        N380   1.423       .  S
C374        C375   1.399       .  A
C374        H379   1.083       .  S
C375        C376   1.429       .  A
C376        N377   1.429       .  S
N377        O381   1.262       .  A
N377        O382   1.262       .  A
N380        O384   1.261       .  A
N380        O383   1.261       .  A
C385        C386   1.404       .  A
C385        C390   1.397       .  A
C385        H392   1.084       .  S
C386        C387   1.412       .  A
C387        C388   1.415       .  A
C387        N394   1.428       .  S
C388        C389   1.409       .  A
C388        H393   1.083       .  S
C389        C390   1.410       .  A
C390        N391   1.429       .  S
N391        O395   1.262       .  A
N391        O396   1.262       .  A
N394        O398   1.262       .  A
N394        O397   1.262       .  A
C399        C400   1.404       .  A
C399        C404   1.407       .  A
C399        H406   1.085       .  S
C400        C401   1.403       .  A
C401        C402   1.403       .  A
C401        N408   1.430       .  S
C402        C403   1.413       .  A
C402        H407   1.082       .  S
C403        C404   1.415       .  A
C404        N405   1.426       .  S
N405        O409   1.260       .  A
N405        O410   1.262       .  A
N408        O412   1.262       .  A
N408        O411   1.262       .  A
C413        C414   1.407       .  A
C413        C418   1.412       .  A
C413        H420   1.083       .  S
C414        C415   1.404       .  A
C415        C416   1.395       .  A
C415        N422   1.429       .  S
C416        C417   1.406       .  A
C416        H421   1.084       .  S
C417        C418   1.410       .  A
C418        N419   1.427       .  S
N419        O423   1.262       .  A
N419        O424   1.262       .  A
N422        O426   1.262       .  A
N422        O425   1.262       .  A
C427        C428   1.401   1_655  A
C427        C432   1.398       .  A
C427        H434   1.080       .  S
C428        C429   1.414       .  A
C429        C430   1.398       .  A
C429        N436   1.429       .  S
C430        C431   1.402       .  A
C430        H435   1.082       .  S
C431        C432   1.411   1_455  A
C432        N433   1.429       .  S
N433        O437   1.262       .  A
N433        O438   1.262       .  A
N436        O440   1.260       .  A
N436        O439   1.261       .  A
C441        C442   1.397   1_545  A
C441        C446   1.395       .  A
C441        H448   1.077       .  S
C442        C443   1.416       .  A
C443        C444   1.399       .  A
C443        N450   1.430       .  S
C444        C445   1.400   1_565  A
C444        H449   1.084       .  S
C445        C446   1.407       .  A
C446        N447   1.429       .  S
N447        O451   1.262       .  A
N447        O452   1.262       .  A
N450        O454   1.261       .  A
N450        O453   1.260       .  A
C455        C456   1.396       .  A
C455        C460   1.394       .  A
C455        H462   1.073       .  S
C456        C457   1.419       .  A
C457        C458   1.407       .  A
C457        N464   1.431   1_655  S
C458        C459   1.403       .  A
C458        H463   1.083       .  S
C459        C460   1.409       .  A
C460        N461   1.429       .  S
N461        O465   1.262       .  A
N461        O466   1.262       .  A
N464        O468   1.260       .  A
N464        O467   1.261       .  A
C469        C470   1.404   1_655  A
C469        C474   1.402       .  A
C469        H476   1.084       .  S
C470        C471   1.412       .  A
C471        C472   1.400       .  A
C471        N478   1.429       .  S
C472        C473   1.402       .  A
C472        H477   1.079       .  S
C473        C474   1.415   1_455  A
C474        N475   1.429       .  S
N475        O479   1.260       .  A
N475        O480   1.262       .  A
N478        O482   1.262       .  A
N478        O481   1.262       .  A
C483        C484   1.407       .  A
C483        C488   1.400       .  A
C483        H490   1.083       .  S
C484        C485   1.413   1_565  A
C485        C486   1.397       .  A
C485        N492   1.428       .  S
C486        C487   1.403   1_545  A
C486        H491   1.081       .  S
C487        C488   1.414       .  A
C488        N489   1.435       .  S
N489        O493   1.261       .  A
N489        O494   1.263       .  A
N492        O496   1.262       .  A
N492        O495   1.262       .  A
C497        C498   1.408       .  A
C497        C502   1.401       .  A
C497        H504   1.081       .  S
C498        C499   1.417       .  A
C499        C500   1.406       .  A
C499        N506   1.431       .  S
C500        C501   1.401       .  A
C500        H505   1.084       .  S
C501        C502   1.402       .  A
C502        N503   1.429       .  S
N503        O507   1.261       .  A
N503        O508   1.262       .  A
N506        O510   1.260       .  A
N506        O509   1.262       .  A
C511        C512   1.395       .  A
C511        C516   1.397       .  A
C511        H518   1.085       .  S
C512        C513   1.412       .  A
C513        C514   1.412       .  A
C513        N520   1.427       .  S
C514        C515   1.407       .  A
C514        H519   1.083       .  S
C515        C516   1.426       .  A
C516        N517   1.437       .  S
N517        O521   1.260       .  A
N517        O522   1.262       .  A
N520        O524   1.262       .  A
N520        O523   1.262       .  A
C525        C526   1.393       .  A
C525        C530   1.399       .  A
C525        H532   1.085       .  S
C526        C527   1.403       .  A
C527        C528   1.398       .  A
C527        N534   1.419       .  S
C528        C529   1.400       .  A
C528        H533   1.084       .  S
C529        C530   1.423       .  A
C530        N531   1.426       .  S
N531        O535   1.262       .  A
N531        O536   1.262       .  A
N534        O538   1.259       .  A
N534        O537   1.261       .  A
C539        C540   1.407       .  A
C539        C544   1.410       .  A
C539        H546   1.083       .  S
C540        C541   1.399       .  A
C541        C542   1.382       .  A
C541        N548   1.431       .  S
C542        C543   1.410       .  A
C542        H547   1.084       .  S
C543        C544   1.409       .  A
C544        N545   1.427       .  S
N545        O549   1.262       .  A
N545        O550   1.262       .  A
N548        O552   1.262       .  A
N548        O551   1.262       .  A
C553        C554   1.397       .  A
C553        C558   1.405       .  A
C553        H560   1.084       .  S
C554        C555   1.413       .  A
C555        C556   1.401       .  A
C555        N562   1.430       .  S
C556        C557   1.398       .  A
C556        H561   1.083       .  S
C557        C558   1.427       .  A
C558        N559   1.429       .  S
N559        O563   1.262       .  A
N559        O564   1.262       .  A
N562        O566   1.261       .  A
N562        O565   1.262       .  A
C567        C568   1.411       .  A
C567        C572   1.410       .  A
C567        H574   1.084       .  S
C568        C569   1.420       .  A
C569        C570   1.412       .  A
C569        N576   1.431       .  S
C570        C571   1.408       .  A
C570        H575   1.083       .  S
C571        C572   1.418       .  A
C572        N573   1.429       .  S
N573        O577   1.261       .  A
N573        O578   1.262       .  A
N576        O580   1.262       .  A
N576        O579   1.262       .  A
C581        C582   1.410       .  A
C581        C586   1.399       .  A
C581        H588   1.084       .  S
C582        C583   1.416       .  A
C583        C584   1.420       .  A
C583        N590   1.429       .  S
C584        C585   1.410       .  A
C584        H589   1.083       .  S
C585        C586   1.407       .  A
C586        N587   1.431       .  S
N587        O591   1.261       .  A
N587        O592   1.262       .  A
N590        O594   1.261       .  A
N590        O593   1.262       .  A
C595        C596   1.410       .  A
C595        C600   1.408       .  A
C595        H602   1.084       .  S
C596        C597   1.414       .  A
C597        C598   1.401       .  A
C597        N604   1.426       .  S
C598        C599   1.402       .  A
C598        H603   1.084       .  S
C599        C600   1.409       .  A
C600        N601   1.429       .  S
N601        O605   1.262       .  A
N601        O606   1.262       .  A
N604        O608   1.261       .  A
N604        O607   1.261       .  A
C609        C610   1.390       .  A
C609        C614   1.387       .  A
C609        H616   1.081       .  S
C610        C611   1.409       .  A
C611        C612   1.389       .  A
C611        N618   1.432       .  S
C612        C613   1.400       .  A
C612        H617   1.084       .  S
C613        C614   1.411       .  A
C614        N615   1.430       .  S
N615        O619   1.262       .  A
N615        O620   1.263       .  A
N618        O622   1.261       .  A
N618        O621   1.259       .  A
C623        C624   1.407       .  A
C623        C628   1.399       .  A
C623        H630   1.083       .  S
C624        C625   1.414       .  A
C625        C626   1.390       .  A
C625        N632   1.429       .  S
C626        C627   1.396       .  A
C626        H631   1.083       .  S
C627        C628   1.413       .  A
C628        N629   1.444       .  S
N629        O633   1.263       .  A
N629        O634   1.263       .  A
N632        O636   1.262       .  A
N632        O635   1.262       .  A
C637        C638   1.397       .  A
C637        C642   1.387       .  A
C637        H644   1.075       .  S
C638        C639   1.410       .  A
C639        C640   1.392       .  A
C639        N646   1.432       .  S
C640        C641   1.400       .  A
C640        H645   1.084       .  S
C641        C642   1.402       .  A
C642        N643   1.429       .  S
N643        O647   1.262       .  A
N643        O648   1.262       .  A
N646        O650   1.261       .  A
N646        O649   1.262       .  A
C651        C652   1.397       .  A
C651        C656   1.391       .  A
C651        H658   1.073       .  S
C652        C653   1.415       .  A
C653        C654   1.399       .  A
C653        N660   1.434       .  S
C654        C655   1.403       .  A
C654        H659   1.084       .  S
C655        C656   1.409       .  A
C656        N657   1.430       .  S
N657        O661   1.262       .  A
N657        O662   1.262       .  A
N660        O664   1.260       .  A
N660        O663   1.262       .  A
C665        C666   1.397       .  A
C665        C670   1.397       .  A
C665        H672   1.075       .  S
C666        C667   1.413       .  A
C667        C668   1.400       .  A
C667        N674   1.431       .  S
C668        C669   1.404       .  A
C668        H673   1.084       .  S
C669        C670   1.411       .  A
C670        N671   1.429       .  S
N671        O675   1.262       .  A
N671        O676   1.262       .  A
N674        O678   1.260       .  A
N674        O677   1.261       .  A
C679        C680   1.422       .  A
C679        C684   1.408       .  A
C679        H686   1.081       .  S
C680        C681   1.411       .  A
C681        C682   1.404       .  A
C681        N688   1.424       .  S
C682        C683   1.409       .  A
C682        H687   1.085       .  S
C683        C684   1.402       .  A
C684        N685   1.431       .  S
N685        O689   1.262       .  A
N685        O690   1.262       .  A
N688        O692   1.261       .  A
N688        O691   1.261       .  A
C693        C694   1.409       .  A
C693        C698   1.412       .  A
C693        H700   1.084       .  S
C694        C695   1.410       .  A
C695        C696   1.407       .  A
C695        N702   1.428       .  S
C696        C697   1.407       .  A
C696        H701   1.084       .  S
C697        C698   1.411       .  A
C698        N699   1.428       .  S
N699        O703   1.262       .  A
N699        O704   1.262       .  A
N702        O706   1.262       .  A
N702        O705   1.262       .  A
C707        C708   1.405       .  A
C707        C712   1.400       .  A
C707        H714   1.085       .  S
C708        C709   1.415       .  A
C709        C710   1.416       .  A
C709        N716   1.427       .  S
C710        C711   1.408       .  A
C710        H715   1.083       .  S
C711        C712   1.413       .  A
C712        N713   1.430       .  S
N713        O717   1.262       .  A
N713        O718   1.262       .  A
N716        O720   1.262       .  A
N716        O719   1.262       .  A
C721        C722   1.407       .  A
C721        C726   1.406       .  A
C721        H728   1.083       .  S
C722        C723   1.410       .  A
C723        C724   1.389       .  A
C723        N730   1.431       .  S
C724        C725   1.404       .  A
C724        H729   1.082       .  S
C725        C726   1.411       .  A
C726        N727   1.428       .  S
N727        O731   1.261       .  A
N727        O732   1.262       .  A
N730        O734   1.262       .  A
N730        O733   1.262       .  A
C735        C736   1.407       .  A
C735        C740   1.415       .  A
C735        H742   1.083       .  S
C736        C737   1.402       .  A
C737        C738   1.395       .  A
C737        N744   1.430       .  S
C738        C739   1.411       .  A
C738        H743   1.078       .  S
C739        C740   1.416       .  A
C740        N741   1.428       .  S
N741        O745   1.261       .  A
N741        O746   1.262       .  A
N744        O748   1.262       .  A
N744        O747   1.262       .  A
C749        C750   1.416       .  A
C749        C754   1.408       .  A
C749        H756   1.081       .  S
C750        C751   1.421       .  A
C751        C752   1.422       .  A
C751        N758   1.429       .  S
C752        C753   1.409       .  A
C752        H757   1.073       .  S
C753        C754   1.410       .  A
C754        N755   1.430       .  S
N755        O759   1.261       .  A
N755        O760   1.262       .  A
N758        O762   1.262       .  A
N758        O761   1.262       .  A
C763        C764   1.398       .  A
C763        C768   1.389       .  A
C763        H770   1.084       .  S
C764        C765   1.415       .  A
C765        C766   1.396       .  A
C765        N772   1.439       .  S
C766        C767   1.406       .  A
C766        H771   1.083       .  S
C767        C768   1.410       .  A
C768        N769   1.427       .  S
N769        O773   1.261       .  A
N769        O774   1.261       .  A
N772        O776   1.260   1_556  A
N772        O775   1.263       .  A
C777        C778   1.408       .  A
C777        C782   1.400       .  A
C777        H784   1.083   1_554  S
C778        C779   1.419       .  A
C779        C780   1.401       .  A
C779        N786   1.431       .  S
C780        C781   1.398       .  A
C780        H785   1.084       .  S
C781        C782   1.405       .  A
C782        N783   1.428   1_554  S
N783        O787   1.262       .  A
N783        O788   1.262   1_556  A
N786        O790   1.260       .  A
N786        O789   1.263       .  A
C791        C792   1.410       .  A
C791        C796   1.404       .  A
C791        H798   1.081       .  S
C792        C793   1.412   1_655  A
C793        C794   1.393       .  A
C793        N800   1.429       .  S
C794        C795   1.403   1_455  A
C794        H799   1.083       .  S
C795        C796   1.408       .  A
C796        N797   1.429       .  S
N797        O801   1.262       .  A
N797        O802   1.261       .  A
N800        O804   1.260       .  A
N800        O803   1.263       .  A
C805        C806   1.403       .  A
C805        C810   1.399       .  A
C805        H812   1.081       .  S
C806        C807   1.411       .  A
C807        C808   1.392       .  A
C807        N814   1.430       .  S
C808        C809   1.401       .  A
C808        H813   1.084       .  S
C809        C810   1.404       .  A
C810        N811   1.432       .  S
N811        O815   1.261       .  A
N811        O816   1.263       .  A
N814        O818   1.261       .  A
N814        O817   1.260       .  A
C819        C820   1.397       .  A
C819        C824   1.400       .  A
C819        H826   1.084       .  S
C820        C821   1.409   1_556  A
C821        C822   1.395       .  A
C821        N828   1.429       .  S
C822        C823   1.401   1_554  A
C822        H827   1.082       .  S
C823        C824   1.421       .  A
C824        N825   1.428       .  S
N825        O829   1.260       .  A
N825        O830   1.260       .  A
N828        O832   1.262       .  A
N828        O831   1.262       .  A
C833        C834   1.409       .  A
C833        C838   1.405       .  A
C833        H840   1.081       .  S
C834        C835   1.417       .  A
C835        C836   1.402       .  A
C835        N842   1.429   1_455  S
C836        C837   1.399       .  A
C836        H841   1.084   1_455  S
C837        C838   1.404       .  A
C838        N839   1.429       .  S
N839        O843   1.262       .  A
N839        O844   1.262   1_455  A
N842        O846   1.258       .  A
N842        O845   1.259   1_655  A
C847        C848   1.406       .  A
C847        C852   1.413       .  A
C847        H854   1.083       .  S
C848        C849   1.403       .  A
C849        C850   1.392       .  A
C849        N856   1.430       .  S
C850        C851   1.409       .  A
C850        H855   1.083       .  S
C851        C852   1.414       .  A
C852        N853   1.428       .  S
N853        O857   1.262       .  A
N853        O858   1.262       .  A
N856        O860   1.262       .  A
N856        O859   1.262       .  A
C861        C862   1.406       .  A
C861        C866   1.407       .  A
C861        H868   1.083       .  S
C862        C863   1.408       .  A
C863        C864   1.406       .  A
C863        N870   1.431       .  S
C864        C865   1.411       .  A
C864        H869   1.083       .  S
C865        C866   1.415       .  A
C866        N867   1.429       .  S
N867        O871   1.262       .  A
N867        O872   1.261       .  A
N870        O874   1.262       .  A
N870        O873   1.262       .  A
C875        C876   1.399       .  A
C875        C880   1.400       .  A
C875        H882   1.083       .  S
C876        C877   1.427       .  A
C877        C878   1.405       .  A
C877        N884   1.428       .  S
C878        C879   1.396       .  A
C878        H883   1.084       .  S
C879        C880   1.415       .  A
C880        N881   1.427       .  S
N881        O885   1.261       .  A
N881        O886   1.261       .  A
N884        O888   1.262       .  A
N884        O887   1.262       .  A
C889        C890   1.407       .  A
C889        C894   1.415       .  A
C889        H896   1.083       .  S
C890        C891   1.405       .  A
C891        C892   1.396       .  A
C891        N898   1.430       .  S
C892        C893   1.409       .  A
C892        H897   1.083       .  S
C893        C894   1.416       .  A
C894        N895   1.428       .  S
N895        O899   1.262       .  A
N895        O900   1.262       .  A
N898        O902   1.261       .  A
N898        O901   1.262       .  A
C903        C904   1.395       .  A
C903        C908   1.397       .  A
C903        H910   1.085       .  S
C904        C905   1.411       .  A
C905        C906   1.412       .  A
C905        N912   1.428       .  S
C906        C907   1.407       .  A
C906        H911   1.083       .  S
C907        C908   1.420       .  A
C908        N909   1.431       .  S
N909        O913   1.261       .  A
N909        O914   1.262       .  A
N912        O916   1.261       .  A
N912        O915   1.262       .  A
C917        C918   1.416       .  A
C917        C922   1.412       .  A
C917        H924   1.082       .  S
C918        C919   1.414       .  A
C919        C920   1.404       .  A
C919        N926   1.429       .  S
C920        C921   1.409       .  A
C920        H925   1.085       .  S
C921        C922   1.408       .  A
C922        N923   1.428       .  S
N923        O927   1.261       .  A
N923        O928   1.262       .  A
N926        O930   1.262       .  A
N926        O929   1.262       .  A
C931        C932   1.403       .  A
C931        C936   1.395       .  A
C931        H938   1.084       .  S
C932        C933   1.417   1_565  A
C933        C934   1.403       .  A
C933        N940   1.432       .  S
C934        C935   1.399   1_545  A
C934        H939   1.084       .  S
C935        C936   1.406       .  A
C936        N937   1.428       .  S
N937        O941   1.261       .  A
N937        O942   1.262       .  A
N940        O944   1.263   1_546  A
N940        O943   1.261   1_556  A
C945        C946   1.403   1_556  A
C945        C950   1.398       .  A
C945        H952   1.083       .  S
C946        C947   1.415       .  A
C947        C948   1.403       .  A
C947        N954   1.434       .  S
C948        C949   1.408       .  A
C948        H953   1.083       .  S
C949        C950   1.412   1_554  A
C950        N951   1.427       .  S
N951        O955   1.259       .  A
N951        O956   1.262       .  A
N954        O958   1.263       .  A
N954        O957   1.261       .  A
C959        C960   1.406   1_556  A
C959        C964   1.401       .  A
C959        H966   1.078       .  S
C960        C961   1.413       .  A
C961        C962   1.397       .  A
C961        N968   1.428       .  S
C962        C963   1.399   1_554  A
C962        H967   1.084       .  S
C963        C964   1.405       .  A
C964        N965   1.430       .  S
N965        O969   1.262       .  A
N965        O970   1.262       .  A
N968        O972   1.261       .  A
N968        O971   1.260       .  A
C973        C974   1.406       .  A
C973        C978   1.400       .  A
C973        H980   1.082       .  S
C974        C975   1.410       .  A
C975        C976   1.395       .  A
C975        N982   1.430       .  S
C976        C977   1.405       .  A
C976        H981   1.080       .  S
C977        C978   1.409       .  A
C978        N979   1.428       .  S
N979        O983   1.261       .  A
N979        O984   1.262       .  A
N982        O986   1.263       .  A
N982        O985   1.260       .  A
C987        C988   1.400       .  A
C987        C992   1.406       .  A
C987        H994   1.084       .  S
C988        C989   1.404       .  A
C989        C990   1.399       .  A
C989        N996   1.428       .  S
C990        C991   1.406       .  A
C990        H995   1.082       .  S
C991        C992   1.420       .  A
C992        N993   1.433       .  S
N993        O997   1.261       .  A
N993        O998   1.263       .  A
N996       O1000   1.262       .  A
N996        O999   1.262       .  A
C1001      C1002   1.402   1_565  A
C1001      C1006   1.396       .  A
C1001      H1008   1.083       .  S
C1002      C1003   1.409       .  A
C1003      C1004   1.397       .  A
C1003      N1010   1.428       .  S
C1004      C1005   1.401   1_545  A
C1004      H1009   1.078       .  S
C1005      C1006   1.412       .  A
C1006      N1007   1.429       .  S
N1007      O1011   1.262       .  A
N1007      O1012   1.260       .  A
N1010      O1014   1.262       .  A
N1010      O1013   1.262       .  A
C1015      C1016   1.396       .  A
C1015      C1020   1.398       .  A
C1015      H1022   1.084       .  S
C1016      C1017   1.412       .  A
C1017      C1018   1.407       .  A
C1017      N1024   1.431       .  S
C1018      C1019   1.406       .  A
C1018      H1023   1.083       .  S
C1019      C1020   1.418       .  A
C1020      N1021   1.429       .  S
N1021      O1025   1.261       .  A
N1021      O1026   1.262       .  A
N1024      O1028   1.262       .  A
N1024      O1027   1.262       .  A
C1029      C1030   1.392       .  A
C1029      C1034   1.399       .  A
C1029      H1036   1.084       .  S
C1030      C1031   1.420       .  A
C1031      C1032   1.412       .  A
C1031      N1038   1.428       .  S
C1032      C1033   1.403       .  A
C1032      H1037   1.083       .  S
C1033      C1034   1.431       .  A
C1034      N1035   1.433       .  S
N1035      O1039   1.259       .  A
N1035      O1040   1.261       .  A
N1038      O1042   1.262       .  A
N1038      O1041   1.262       .  A
C1043      C1044   1.396       .  A
C1043      C1048   1.391       .  A
C1043      H1050   1.085       .  S
C1044      C1045   1.409       .  A
C1045      C1046   1.410       .  A
C1045      N1052   1.441       .  S
C1046      C1047   1.411       .  A
C1046      H1051   1.082       .  S
C1047      C1048   1.416       .  A
C1048      N1049   1.427       .  S
N1049      O1053   1.261       .  A
N1049      O1054   1.262       .  A
N1052      O1056   1.262       .  A
N1052      O1055   1.262       .  A
C1057      C1058   1.405       .  A
C1057      C1062   1.395       .  A
C1057      H1064   1.083       .  S
C1058      C1059   1.413       .  A
C1059      C1060   1.411       .  A
C1059      N1066   1.427       .  S
C1060      C1061   1.405       .  A
C1060      H1065   1.083       .  S
C1061      C1062   1.409       .  A
C1062      N1063   1.430       .  S
N1063      O1067   1.262       .  A
N1063      O1068   1.262       .  A
N1066      O1070   1.261       .  A
N1066      O1069   1.262       .  A
C1071      C1072   1.406       .  A
C1071      C1076   1.408       .  A
C1071      H1078   1.083       .  S
C1072      C1073   1.420       .  A
C1073      C1074   1.398       .  A
C1073      N1080   1.435       .  S
C1074      C1075   1.398       .  A
C1074      H1079   1.085       .  S
C1075      C1076   1.409       .  A
C1076      N1077   1.427       .  S
N1077      O1081   1.261       .  A
N1077      O1082   1.262       .  A
N1080      O1084   1.262       .  A
N1080      O1083   1.262       .  A
C1085      C1086   1.404       .  A
C1085      C1090   1.410       .  A
C1085      H1092   1.082       .  S
C1086      C1087   1.419       .  A
C1087      C1088   1.416       .  A
C1087      N1094   1.428       .  S
C1088      C1089   1.404       .  A
C1088      H1093   1.083       .  S
C1089      C1090   1.424       .  A
C1090      N1091   1.430       .  S
N1091      O1095   1.261       .  A
N1091      O1096   1.262       .  A
N1094      O1098   1.261       .  A
N1094      O1097   1.262       .  A
C1099      C1100   1.398       .  A
C1099      C1104   1.395       .  A
C1099      H1106   1.125       .  S
C1100      C1101   1.423       .  A
C1101      C1102   1.411       .  A
C1101      N1108   1.428       .  S
C1102      C1103   1.402       .  A
C1102      H1107   1.092       .  S
C1103      C1104   1.406       .  A
C1104      N1105   1.428       .  S
N1105      O1109   1.262       .  A
N1105      O1110   1.262       .  A
N1108      O1112   1.262       .  A
N1108      O1111   1.262       .  A
C1113      C1114   1.401       .  A
C1113      C1118   1.399       .  A
C1113      H1120   1.084       .  S
C1114      C1115   1.402       .  A
C1115      C1116   1.395       .  A
C1115      N1122   1.429       .  S
C1116      C1117   1.410       .  A
C1116      H1121   1.083       .  S
C1117      C1118   1.414       .  A
C1118      N1119   1.429       .  S
N1119      O1123   1.262       .  A
N1119      O1124   1.262       .  A
N1122      O1126   1.261       .  A
N1122      O1125   1.262       .  A
C1127      C1128   1.404       .  A
C1127      C1132   1.398       .  A
C1127      H1134   1.085       .  S
C1128      C1129   1.414       .  A
C1129      C1130   1.413       .  A
C1129      N1136   1.428       .  S
C1130      C1131   1.406       .  A
C1130      H1135   1.084       .  S
C1131      C1132   1.412       .  A
C1132      N1133   1.430       .  S
N1133      O1137   1.262       .  A
N1133      O1138   1.262       .  A
N1136      O1140   1.262       .  A
N1136      O1139   1.262       .  A
C1141      C1142   1.418       .  A
C1141      C1146   1.410       .  A
C1141      H1148   1.083       .  S
C1142      C1143   1.416       .  A
C1143      C1144   1.397       .  A
C1143      N1150   1.430       .  S
C1144      C1145   1.404       .  A
C1144      H1149   1.085       .  S
C1145      C1146   1.402       .  A
C1146      N1147   1.429       .  S
N1147      O1151   1.261       .  A
N1147      O1152   1.262       .  A
N1150      O1154   1.262       .  A
N1150      O1153   1.262       .  A
C1155      C1156   1.409       .  A
C1155      C1160   1.418       .  A
C1155      H1162   1.083       .  S
C1156      C1157   1.402       .  A
C1157      C1158   1.395       .  A
C1157      N1164   1.430       .  S
C1158      C1159   1.413       .  A
C1158      H1163   1.084       .  S
C1159      C1160   1.415       .  A
C1160      N1161   1.427       .  S
N1161      O1165   1.262       .  A
N1161      O1166   1.262       .  A
N1164      O1168   1.262       .  A
N1164      O1167   1.262       .  A
C1169      C1170   1.409       .  A
C1169      C1174   1.406       .  A
C1169      H1176   1.084       .  S
C1170      C1171   1.407       .  A
C1171      C1172   1.416       .  A
C1171      N1178   1.429       .  S
C1172      C1173   1.422       .  A
C1172      H1177   1.083       .  S
C1173      C1174   1.411       .  A
C1174      N1175   1.424       .  S
N1175      O1179   1.261       .  A
N1175      O1180   1.261       .  A
N1178      O1182   1.261       .  A
N1178      O1181   1.262       .  A
C1183      C1184   1.406       .  A
C1183      C1188   1.403       .  A
C1183      H1190   1.084       .  S
C1184      C1185   1.411       .  A
C1185      C1186   1.413       .  A
C1185      N1192   1.434       .  S
C1186      C1187   1.414       .  A
C1186      H1191   1.082       .  S
C1187      C1188   1.416       .  A
C1188      N1189   1.429       .  S
N1189      O1193   1.262       .  A
N1189      O1194   1.262       .  A
N1192      O1196   1.262       .  A
N1192      O1195   1.262       .  A
C1197      C1198   1.406       .  A
C1197      C1202   1.414       .  A
C1197      H1204   1.083       .  S
C1198      C1199   1.424       .  A
C1199      C1200   1.401       .  A
C1199      N1206   1.430       .  S
C1200      C1201   1.395       .  A
C1200      H1205   1.084       .  S
C1201      C1202   1.414       .  A
C1202      N1203   1.427       .  S
N1203      O1207   1.262       .  A
N1203      O1208   1.262       .  A
N1206      O1210   1.261       .  A
N1206      O1209   1.262       .  A
C1211      C1212   1.411       .  A
C1211      C1216   1.403       .  A
C1211      H1218   1.085       .  S
C1212      C1213   1.405       .  A
C1213      C1214   1.410       .  A
C1213      N1220   1.428       .  S
C1214      C1215   1.419       .  A
C1214      H1219   1.083       .  S
C1215      C1216   1.412       .  A
C1216      N1217   1.429       .  S
N1217      O1221   1.262       .  A
N1217      O1222   1.262       .  A
N1220      O1224   1.261       .  A
N1220      O1223   1.262       .  A
C1225      C1226   1.411       .  A
C1225      C1230   1.419       .  A
C1225      H1232   1.083       .  S
C1226      C1227   1.407       .  A
C1227      C1228   1.404       .  A
C1227      N1234   1.429       .  S
C1228      C1229   1.412       .  A
C1228      H1233   1.084       .  S
C1229      C1230   1.413       .  A
C1230      N1231   1.427       .  S
N1231      O1235   1.262       .  A
N1231      O1236   1.262       .  A
N1234      O1238   1.262       .  A
N1234      O1237   1.262       .  A
C1239      C1240   1.400       .  A
C1239      C1244   1.402       .  A
C1239      H1246   1.084       .  S
C1240      C1241   1.405       .  A
C1241      C1242   1.408       .  A
C1241      N1248   1.428       .  S
C1242      C1243   1.413       .  A
C1242      H1247   1.082       .  S
C1243      C1244   1.417       .  A
C1244      N1245   1.429       .  S
N1245      O1249   1.262       .  A
N1245      O1250   1.261       .  A
N1248      O1252   1.262       .  A
N1248      O1251   1.261       .  A
C1253      C1254   1.409       .  A
C1253      C1258   1.403       .  A
C1253      H1260   1.084       .  S
C1254      C1255   1.415       .  A
C1255      C1256   1.418       .  A
C1255      N1262   1.428       .  S
C1256      C1257   1.409       .  A
C1256      H1261   1.083       .  S
C1257      C1258   1.411       .  A
C1258      N1259   1.429       .  S
N1259      O1263   1.262       .  A
N1259      O1264   1.262       .  A
N1262      O1266   1.262       .  A
N1262      O1265   1.262       .  A
C1267      C1268   1.397       .  A
C1267      C1272   1.401       .  A
C1267      H1274   1.078       .  S
C1268      C1269   1.413       .  A
C1269      C1270   1.409       .  A
C1269      N1276   1.429       .  S
C1270      C1271   1.405       .  A
C1270      H1275   1.083       .  S
C1271      C1272   1.420       .  A
C1272      N1273   1.431       .  S
N1273      O1277   1.262       .  A
N1273      O1278   1.262       .  A
N1276      O1280   1.262       .  A
N1276      O1279   1.261       .  A
C1281      C1282   1.396       .  A
C1281      C1286   1.391       .  A
C1281      H1288   1.084       .  S
C1282      C1283   1.412       .  A
C1283      C1284   1.414       .  A
C1283      N1290   1.428       .  S
C1284      C1285   1.409       .  A
C1284      H1289   1.078       .  S
C1285      C1286   1.417       .  A
C1286      N1287   1.426       .  S
N1287      O1291   1.262       .  A
N1287      O1292   1.260       .  A
N1290      O1294   1.261       .  A
N1290      O1293   1.261       .  A
C1295      C1296   1.406       .  A
C1295      C1300   1.412       .  A
C1295      H1302   1.083       .  S
C1296      C1297   1.434       .  A
C1297      C1298   1.399       .  A
C1297      N1304   1.436       .  S
C1298      C1299   1.392       .  A
C1298      H1303   1.085       .  S
C1299      C1300   1.416       .  A
C1300      N1301   1.428       .  S
N1301      O1305   1.262       .  A
N1301      O1306   1.262       .  A
N1304      O1308   1.262       .  A
N1304      O1307   1.261       .  A
C1309      C1310   1.410       .  A
C1309      C1314   1.421       .  A
C1309      H1316   1.083       .  S
C1310      C1311   1.439       .  A
C1311      C1312   1.394       .  A
C1311      N1318   1.434       .  S
C1312      C1313   1.386       .  A
C1312      H1317   1.085       .  S
C1313      C1314   1.415       .  A
C1314      N1315   1.427       .  S
N1315      O1319   1.262       .  A
N1315      O1320   1.261       .  A
N1318      O1322   1.261       .  A
N1318      O1321   1.262       .  A
C1323      C1324   1.412       .  A
C1323      C1328   1.414       .  A
C1323      H1330   1.083       .  S
C1324      C1325   1.408       .  A
C1325      C1326   1.385       .  A
C1325      N1332   1.422       .  S
C1326      C1327   1.392       .  A
C1326      H1331   1.086       .  S
C1327      C1328   1.407       .  A
C1328      N1329   1.428       .  S
N1329      O1333   1.261       .  A
N1329      O1334   1.262       .  A
N1332      O1336   1.260       .  A
N1332      O1335   1.261       .  A
C1337      C1338   1.400       .  A
C1337      C1342   1.413       .  A
C1337      H1344   1.083       .  S
C1338      C1339   1.421       .  A
C1339      C1340   1.397       .  A
C1339      N1346   1.421       .  S
C1340      C1341   1.391       .  A
C1340      H1345   1.085       .  S
C1341      C1342   1.422       .  A
C1342      N1343   1.433       .  S
N1343      O1347   1.263       .  A
N1343      O1348   1.262       .  A
N1346      O1350   1.260       .  A
N1346      O1349   1.262       .  A
