geometry optimzed in LAMMPS
_audit_creation_date              2020-11-30 
_audit_creation_method            'lammps2cif' 
_symmetry_space_group_name_H-M    'P1' 
_symmetry_Int_Tables_number       1 
_symmetry_cell_setting            triclinic 
loop_ 
_symmetry_equiv_pos_as_xyz 
  x,y,z 
_cell_length_a                    31.916874631863767 
_cell_length_b                    31.766495947056107 
_cell_length_c                    31.98896906639567 
_cell_angle_alpha                 92.86572826292826 
_cell_angle_beta                  92.28502197286016 
_cell_angle_gamma                 92.46495824577441 
loop_ 
_atom_site_label 
_atom_site_type_symbol 
_atom_site_fract_x 
_atom_site_fract_y 
_atom_site_fract_z 
_atom_site_charge 
C1          C  0.64712157  0.64528928  0.88052091     0.02690
C2          C  0.67104398  0.61595545  0.90085545    -0.13460
C3          C  0.66963346  0.61301411  0.94386143     0.00190
C4          C  0.63983706  0.63704003  0.96583167    -0.11980
C5          C  0.61527548  0.66690731  0.94521200     0.02690
C6          C  0.61839025  0.66931919  0.90208719    -0.11400
H7          H  0.69534882  0.60019430  0.88413317     0.08280
H8          H  0.63834170  0.63509387  0.99927767     0.05810
H9          H  0.60281032  0.69407523  0.88619620     0.05660
C10         C  0.91825438  0.65317530  0.62461584     0.02690
C11         C  0.93928260  0.67599212  0.59514846    -0.13460
C12         C  0.98172278  0.67104138  0.58977594     0.00190
C13         C  0.00203233  0.63955683  0.61247713    -0.11980
C14         C  0.98041003  0.61663216  0.64300892     0.02690
C15         C  0.93810362  0.62306376  0.64755162    -0.11400
H16         H  0.92367684  0.70139462  0.58031786     0.08280
H17         H  0.03511474  0.63555456  0.60908179     0.05810
H18         H  0.92174093  0.60837041  0.67252405     0.05660
C19         C  0.65856708  0.91458774  0.62050029     0.02690
C20         C  0.62707393  0.93473528  0.64152115    -0.13460
C21         C  0.62229897  0.97747049  0.63768028     0.00190
C22         C  0.64680149  0.99885199  0.60843428    -0.11980
C23         C  0.67864947  0.97791481  0.58664299     0.02690
C24         C  0.68331839  0.93533450  0.59233596    -0.11400
H25         H  0.61055458  0.91844946  0.66543485     0.08280
H26         H  0.64378975  0.03231336  0.60559949     0.05810
H27         H  0.70943602  0.91952795  0.57879580     0.05660
C28         C  0.73313163  0.73080304  0.75537057     0.01850
C29         C  0.77079036  0.71641150  0.74065317     0.01850
C30         C  0.78840411  0.73438224  0.70621757     0.01850
C31         C  0.77126273  0.76917403  0.68892715     0.01850
C32         C  0.73268975  0.78191194  0.70205897     0.01850
C33         C  0.71460970  0.76461126  0.73665994     0.01850
C34         C  0.42549744  0.36829037  0.96068287     0.02690
C35         C  0.39465249  0.34109381  0.93992125    -0.13460
C36         C  0.35480838  0.35458720  0.93048654     0.00190
C37         C  0.34483552  0.39563507  0.94021147    -0.11980
C38         C  0.37349802  0.42420734  0.96199401     0.02690
C39         C  0.41491732  0.41077763  0.97158371    -0.11400
H40         H  0.40099546  0.30851115  0.93174411     0.08280
H41         H  0.31320962  0.40453077  0.93207943     0.05810
H42         H  0.43768070  0.43216957  0.98835306     0.05660
C43         C  0.01082917  0.34834007  0.32048977     0.02690
C44         C  0.02106743  0.38864622  0.30965356    -0.13460
C45         C  0.02398245  0.42189789  0.34030803     0.00190
C46         C  0.02521358  0.41172285  0.38346203    -0.11980
C47         C  0.02392982  0.36824396  0.39367277     0.02690
C48         C  0.01979967  0.33720339  0.36077076    -0.11400
H49         H  0.01693778  0.39452049  0.27667395     0.08280
H50         H  0.02616540  0.43650381  0.40799908     0.05810
H51         H  0.01427003  0.30420671  0.36689898     0.05660
C52         C  0.35385867  0.99328676  0.31371547     0.02690
C53         C  0.39562547  0.99796893  0.30448224    -0.13460
C54         C  0.42774359  0.00099309  0.33580212     0.00190
C55         C  0.41610001  0.00329707  0.37872191    -0.11980
C56         C  0.37250952  0.00095526  0.38851411     0.02690
C57         C  0.34233987  0.99523884  0.35506894    -0.11400
H58         H  0.40275331  0.99591379  0.27159694     0.08280
H59         H  0.44012174  0.00656767  0.40365931     0.05810
H60         H  0.30928568  0.99046432  0.36085848     0.05660
C61         C  0.89977283  0.89466974  0.39265797     0.02690
C62         C  0.88538636  0.93247066  0.40862883    -0.13460
C63         C  0.89616404  0.94608303  0.44957940     0.00190
C64         C  0.92862236  0.92487626  0.47141297    -0.11980
C65         C  0.94648741  0.88808322  0.45266847     0.02690
C66         C  0.93287399  0.87520481  0.41220746    -0.11400
H67         H  0.85911317  0.94609261  0.39236861     0.08280
H68         H  0.93814416  0.93546177  0.50260614     0.05810
H69         H  0.94318622  0.84561710  0.39853900     0.05660
C70         C  0.90096691  0.95215751  0.58763106     0.02690
C71         C  0.87349840  0.92365229  0.60586941    -0.13460
C72         C  0.88455520  0.88320022  0.61339145     0.00190
C73         C  0.92424397  0.86996981  0.60564815    -0.11980
C74         C  0.95424099  0.89638154  0.58804595     0.02690
C75         C  0.94298451  0.93901461  0.58025982    -0.11400
H76         H  0.84199453  0.93211471  0.61335775     0.08280
H77         H  0.93110543  0.83794726  0.61295370     0.05810
H78         H  0.96523170  0.96026615  0.56637220     0.05660
C79         C  0.85261109  0.48391009  0.81914052     0.02690
C80         C  0.84108294  0.48463184  0.86032035    -0.13460
C81         C  0.87054767  0.49417917  0.89358421     0.00190
C82         C  0.91389598  0.50181080  0.88356848    -0.11980
C83         C  0.92561675  0.50050947  0.84044541     0.02690
C84         C  0.89365583  0.49236213  0.80943980    -0.11400
H85         H  0.80850350  0.47668407  0.86601847     0.08280
H86         H  0.93758305  0.50845459  0.90842407     0.05810
H87         H  0.90046771  0.49018910  0.77648126     0.05660
C88         C  0.89684000  0.61174283  0.91846462     0.02690
C89         C  0.87171966  0.63350438  0.89110149    -0.13460
C90         C  0.88568181  0.64484425  0.85297718     0.00190
C91         C  0.92578922  0.63731065  0.84104794    -0.11980
C92         C  0.95312468  0.61530172  0.86613619     0.02690
C93         C  0.93870572  0.60251661  0.90607724    -0.11400
H94         H  0.83997884  0.64113418  0.89859143     0.08280
H95         H  0.93480687  0.64755725  0.81070226     0.05810
H96         H  0.95856756  0.58437914  0.92586362     0.05660
C97         C  0.11058153  0.89512301  0.43725823     0.02690
C98         C  0.14024104  0.92126763  0.46191360    -0.13460
C99         C  0.16514866  0.95268651  0.44394641     0.00190
C100        C  0.15817028  0.96027643  0.40217272    -0.11980
C101        C  0.13233966  0.93222745  0.37658462     0.02690
C102        C  0.10753194  0.90046481  0.39401723    -0.11400
H103        H  0.14536599  0.91617972  0.49479269     0.08280
H104        H  0.17828574  0.98354271  0.38799925     0.05810
H105        H  0.08864897  0.87817467  0.37366157     0.05660
C106        C  0.15707209  0.86779196  0.58492823     0.02690
C107        C  0.18244589  0.83469881  0.59411342    -0.13460
C108        C  0.22609527  0.83989439  0.59516826     0.00190
C109        C  0.24548003  0.87949553  0.58962190    -0.11980
C110        C  0.22153715  0.91439679  0.58178153     0.02690
C111        C  0.17680483  0.90808984  0.57847515    -0.11400
H112        H  0.16825695  0.80348719  0.59745716     0.08280
H113        H  0.27946395  0.88278806  0.58992667     0.05810
H114        H  0.15781446  0.93344189  0.56841443     0.05660
O115        O  0.07561386  0.74587871  0.60244030    -0.80570
O116        O  0.05770086  0.83707448  0.43662003    -0.80600
O117        O  0.11559266  0.73666592  0.46386911    -0.80600
O118        O  0.09841041  0.86336509  0.53625510    -0.80550
O119        O  0.06319264  0.75090232  0.42030813    -0.80670
O120        O  0.08929563  0.83115970  0.59391215    -0.80590
O121        O  0.08590539  0.86403998  0.49759422    -0.80570
O122        O  0.11913874  0.74109962  0.55300504    -0.80610
C123        C  0.10790781  0.73004596  0.58837543     1.09120
C124        C  0.08396414  0.86279314  0.45752628     1.09000
C125        C  0.09897622  0.73582133  0.42695589     1.09140
C126        C  0.11251869  0.85517080  0.57219162     1.09020
O127        O  0.99255555  0.83337320  0.57400529    -0.80570
O128        O  0.98649171  0.73048986  0.45808002    -0.80650
O129        O  0.03904908  0.69379694  0.54980008    -0.80590
O130        O  0.01053992  0.87550886  0.49065599    -0.80570
O131        O  0.97293404  0.81998384  0.47021011    -0.80620
O132        O  0.99412027  0.74217428  0.56846981    -0.80580
O133        O  0.02586625  0.89330314  0.56241046    -0.80540
O134        O  0.04021737  0.68973196  0.46539821    -0.80610
Co135      Co  0.03853938  0.78844471  0.57750017     1.51530
Co136      Co  0.02149058  0.78471348  0.45172599     1.51690
Co137      Co  0.07730748  0.72132934  0.50881157     1.51570
Co138      Co  0.04043154  0.84103017  0.53208096     1.51470
O139        O  0.05033030  0.78150620  0.51121240    -1.42510
C140        C  0.99340711  0.87437942  0.57528867     1.09040
C141        C  0.00282917  0.69438088  0.45321578     1.09130
C142        C  0.00535363  0.70383448  0.56697531     1.09070
C143        C  0.97717470  0.86017516  0.47343143     1.09050
C144        C  0.39948136  0.60343962  0.93855645     0.02690
C145        C  0.40021769  0.60440805  0.89480274    -0.13460
C146        C  0.42892731  0.63193282  0.87641386     0.00190
C147        C  0.45814273  0.65731296  0.90096084    -0.11980
C148        C  0.45600729  0.65983164  0.94411769     0.02690
C149        C  0.42775177  0.63167333  0.96303645    -0.11400
H150        H  0.37671886  0.58633273  0.87521339     0.08280
H151        H  0.47873848  0.67955166  0.88599902     0.05810
H152        H  0.42641951  0.63330887  0.99669066     0.05660
C153        C  0.40506572  0.96486729  0.56982913     0.02690
C154        C  0.40774269  0.92121086  0.56806896    -0.13460
C155        C  0.43344231  0.90170253  0.59727800     0.00190
C156        C  0.45971876  0.92580435  0.62639634    -0.11980
C157        C  0.45931602  0.96975361  0.62818298     0.02690
C158        C  0.43213728  0.98914147  0.59933246    -0.11400
H159        H  0.38595753  0.90189147  0.54758327     0.08280
H160        H  0.47747086  0.91013087  0.65019902     0.05810
H161        H  0.43052551  0.02302805  0.60142839     0.05660
C162        C  0.34270772  0.72042584  0.64685141     0.01850
C163        C  0.33462402  0.67993202  0.66257609     0.01850
C164        C  0.35494946  0.66940710  0.70073887     0.01850
C165        C  0.39105520  0.69326439  0.71588670     0.01850
C166        C  0.39917162  0.73352670  0.70026586     0.01850
C167        C  0.37624547  0.74650478  0.66490340     0.01850
C168        C  0.16923552  0.63217618  0.60406034     0.02690
C169        C  0.15480068  0.66901359  0.58733709    -0.13460
C170        C  0.12282819  0.69054027  0.60660479     0.00190
C171        C  0.10446971  0.67266506  0.64204422    -0.11980
C172        C  0.11613208  0.63235660  0.65524910     0.02690
C173        C  0.14402464  0.60992961  0.63097901    -0.11400
H174        H  0.17316874  0.68455034  0.56430951     0.08280
H175        H  0.08171049  0.68998741  0.65933570     0.05810
H176        H  0.15519360  0.58052370  0.64203241     0.05660
O177        O  0.99280504  0.59580451  0.71382409    -0.80570
O178        O  0.97218059  0.50399058  0.78392217    -0.80600
O179        O  0.03985933  0.48837186  0.66230151    -0.80600
O180        O  0.02391862  0.58881488  0.86438723    -0.80550
O181        O  0.98646300  0.48430899  0.70258400    -0.80670
O182        O  0.99346816  0.60397325  0.80440471    -0.80590
O183        O  0.00209355  0.51721579  0.84378325    -0.80570
O184        O  0.03539532  0.57358416  0.66461979    -0.80610
C185        C  0.00297689  0.59274104  0.67535819     1.09120
C186        C  0.96883239  0.50662407  0.82304076     1.09000
C187        C  0.00230388  0.47721202  0.66724741     1.09140
C188        C  0.99275433  0.60320348  0.84502348     1.09020
O189        O  0.09133031  0.62147731  0.79834257    -0.80570
O190        O  0.06385351  0.44648276  0.72627759    -0.80650
O191        O  0.11618502  0.58059676  0.70831082    -0.80590
O192        O  0.08331272  0.52687539  0.83783475    -0.80570
O193        O  0.05476042  0.46615726  0.81070175    -0.80620
O194        O  0.07297962  0.63036455  0.71383293    -0.80580
O195        O  0.09689955  0.56522574  0.83420381    -0.80540
O196        O  0.11493083  0.49060418  0.70840847    -0.80610
Co197      Co  0.03858129  0.60548263  0.75829694     1.51530
Co198      Co  0.02092250  0.47992270  0.75632710     1.51690
Co199      Co  0.07545276  0.53427338  0.69193126     1.51570
Co200      Co  0.03841620  0.55908267  0.81252921     1.51470
O201        O  0.05007476  0.53879120  0.75261726    -1.42510
C202        C  0.11320005  0.59981450  0.82350350     1.09040
C203        C  0.09922963  0.45314128  0.71020471     1.09130
C204        C  0.10358944  0.61525484  0.69603742     1.09070
C205        C  0.08078632  0.48689616  0.83687736     1.09050
C206        C  0.10853025  0.46613114  0.86764223     0.02690
C207        C  0.13618058  0.48987080  0.89712460    -0.13460
C208        C  0.16620677  0.46985958  0.92254412     0.00190
C209        C  0.16726598  0.42613348  0.91884108    -0.11980
C210        C  0.13991772  0.40303526  0.89031150     0.02690
C211        C  0.11021066  0.42253298  0.86562514    -0.11400
H212        H  0.13572484  0.52386113  0.89895225     0.08280
H213        H  0.19135290  0.41009477  0.93591417     0.05810
H214        H  0.09107860  0.40375330  0.84222140     0.05660
C215        C  0.22991016  0.62111566  0.81513610     0.02690
C216        C  0.18652728  0.61969642  0.80584033    -0.13460
C217        C  0.15809239  0.61134354  0.83709453     0.00190
C218        C  0.17479629  0.60539632  0.87850069    -0.11980
C219        C  0.21899938  0.60875062  0.88790059     0.02690
C220        C  0.24557150  0.61654968  0.85572897    -0.11400
H221        H  0.17504983  0.62308160  0.77395885     0.08280
H222        H  0.15386352  0.59611077  0.90252240     0.05810
H223        H  0.27932519  0.61754142  0.86198063     0.05660
C224        C  0.48288336  0.85142195  0.81875171     0.02690
C225        C  0.49002882  0.89248217  0.80809855    -0.13460
C226        C  0.50123515  0.92491638  0.83814134     0.00190
C227        C  0.50520893  0.91409974  0.88130421    -0.11980
C228        C  0.49795505  0.87088156  0.89210004     0.02690
C229        C  0.48567326  0.84087629  0.85992649    -0.11400
H230        H  0.48560076  0.89876930  0.77523638     0.08280
H231        H  0.51457167  0.93813779  0.90541556     0.05810
H232        H  0.47748227  0.80847421  0.86654990     0.05660
C233        C  0.60789488  0.94474719  0.85523990     0.02690
C234        C  0.61399599  0.91262980  0.82475852    -0.13460
C235        C  0.61384814  0.87086260  0.83421715     0.00190
C236        C  0.60773178  0.85914944  0.87452316    -0.11980
C237        C  0.60382548  0.88897694  0.90765020     0.02690
C238        C  0.60313036  0.93286977  0.89785773    -0.11400
H239        H  0.62088230  0.91968449  0.79286741     0.08280
H240        H  0.60955828  0.82585863  0.88001924     0.05810
H241        H  0.59823079  0.95673558  0.92228436     0.05660
C242        C  0.11960332  0.65521197  0.33667881     0.02690
C243        C  0.13162195  0.68416815  0.30703949    -0.13460
C244        C  0.13586487  0.72758225  0.31812944     0.00190
C245        C  0.13021908  0.74266182  0.35908837    -0.11980
C246        C  0.11836721  0.71557854  0.38972565     0.02690
C247        C  0.11283838  0.67148336  0.37837957    -0.11400
H248        H  0.13541119  0.67334182  0.27480542     0.08280
H249        H  0.13242617  0.77644750  0.36646898     0.05810
H250        H  0.10165419  0.65031256  0.40133546     0.05660
C251        C  0.23395605  0.90752031  0.19758311     0.01850
C252        C  0.24629669  0.88505090  0.16102742     0.01850
C253        C  0.22441462  0.84737722  0.14649760     0.01850
C254        C  0.18554483  0.83682637  0.16348145     0.01850
C255        C  0.17631472  0.85533366  0.20297967     0.01850
C256        C  0.19792543  0.89304654  0.21770870     0.01850
C257        C  0.36802320  0.65273115  0.08475067     0.02690
C258        C  0.33610191  0.67946176  0.09635565    -0.13460
C259        C  0.34290254  0.72346526  0.09841230     0.00190
C260        C  0.38269007  0.74157194  0.09168558    -0.11980
C261        C  0.41634501  0.71653351  0.08198978     0.02690
C262        C  0.40853967  0.67171398  0.07772769    -0.11400
H263        H  0.30483634  0.66624988  0.10095593     0.08280
H264        H  0.38706925  0.77566611  0.09254324     0.05810
H265        H  0.43321867  0.65201005  0.06713069     0.05660
O266        O  0.36961151  0.57695540  0.99923697    -0.80570
O267        O  0.24037845  0.61260829  0.04994734    -0.80600
O268        O  0.25654279  0.55613171  0.91915437    -0.80600
O269        O  0.32926337  0.58531257  0.09333767    -0.80550
O270        O  0.23749589  0.60791327  0.96206984    -0.80670
O271        O  0.36658198  0.59061540  0.03813613    -0.80590
O272        O  0.24440601  0.56998657  0.09987948    -0.80570
O273        O  0.34157868  0.54991015  0.93840432    -0.80610
C274        C  0.36811591  0.57555120  0.95925878     1.09120
C275        C  0.22875351  0.60195453  0.08514111     1.09000
C276        C  0.23922780  0.59106806  0.92536778     1.09140
C277        C  0.35521798  0.60723128  0.07243628     1.09020
O278        O  0.39314387  0.51490564  0.06237227    -0.80570
O279        O  0.19239201  0.53139244  0.96194944    -0.80650
O280        O  0.31599637  0.46681745  0.97680884    -0.80590
O281        O  0.24453947  0.48743083  0.06550445    -0.80570
O282        O  0.19518530  0.53059515  0.04703471    -0.80620
O283        O  0.37554541  0.49777940  0.98944699    -0.80580
O284        O  0.33197268  0.48599868  0.07595740    -0.80540
O285        O  0.23473678  0.47939742  0.95736452    -0.80610
Co286      Co  0.34289694  0.53205972  0.03156724     1.51530
Co287      Co  0.22234902  0.56941473  0.00630465     1.51690
Co288      Co  0.28771629  0.51473474  0.95246998     1.51570
Co289      Co  0.28828572  0.53324636  0.07641460     1.51470
O290        O  0.28369348  0.54495138  0.01047756    -1.42510
C291        C  0.37238108  0.48409904  0.07649007     1.09040
C292        C  0.19921256  0.49431474  0.94927046     1.09130
C293        C  0.35518343  0.46487065  0.97646443     1.09070
C294        C  0.20623490  0.49723981  0.06410098     1.09050
O295        O  0.02911615  0.49887763  0.34326064    -0.80570
O296        O  0.07881945  0.52848174  0.16158472    -0.80600
O297        O  0.98976228  0.47708547  0.20382888    -0.80600
O298        O  0.11236991  0.48900609  0.29971457    -0.80550
O299        O  0.99384866  0.52619533  0.15865542    -0.80670
O300        O  0.10080900  0.52009377  0.36028974    -0.80590
O301        O  0.10051958  0.48795375  0.21181072    -0.80570
O302        O  0.01533813  0.46691529  0.28431598    -0.80610
C303        C  0.02115028  0.46462025  0.32308952     1.09120
C304        C  0.09782012  0.49658563  0.17324812     1.09000
C305        C  0.98016333  0.49044758  0.16776077     1.09140
C306        C  0.11383095  0.48810966  0.34021618     1.09020
O307        O  0.07254854  0.59384954  0.33287865    -0.80570
O308        O  0.98883725  0.60262463  0.19936414    -0.80650
O309        O  0.97434773  0.54849394  0.31289661    -0.80590
O310        O  0.13150907  0.57074425  0.20997578    -0.80570
O311        O  0.07900862  0.61088354  0.20331300    -0.80620
O312        O  0.03478126  0.57908554  0.33769192    -0.80580
O313        O  0.12728175  0.58858139  0.29485933    -0.80540
O314        O  0.95223541  0.55170969  0.22759906    -0.80610
Co315      Co  0.06809590  0.53512958  0.30985537     1.51530
Co316      Co  0.03662224  0.56616538  0.18744244     1.51690
Co317      Co  0.98755566  0.51317772  0.25776256     1.51570
Co318      Co  0.11061375  0.53504539  0.25490969     1.51470
O319        O  0.04389084  0.54526973  0.25067989    -1.42510
C320        C  0.10666522  0.61046553  0.32142922     1.09040
C321        C  0.95386185  0.58301578  0.20462906     1.09130
C322        C  0.99496314  0.57520310  0.33885338     1.09190
C323        C  0.11466252  0.60028086  0.19204083     1.09050
C324        C  0.16171390  0.41155823  0.12763370     0.02690
C325        C  0.13070150  0.43150374  0.14944731    -0.13460
C326        C  0.12201943  0.47288471  0.14205894     0.00190
C327        C  0.14300414  0.49322574  0.10972200    -0.11980
C328        C  0.17531923  0.47305678  0.08815115     0.02690
C329        C  0.18351105  0.43161295  0.09686949    -0.11400
H330        H  0.11622469  0.41594401  0.17502900     0.08280
H331        H  0.13710798  0.52575207  0.10424527     0.05810
H332        H  0.20944810  0.41618268  0.08258439     0.05660
C333        C  0.89297000  0.46212923  0.08036699     0.02690
C334        C  0.92736673  0.48479802  0.10335411    -0.13460
C335        C  0.95005907  0.46609720  0.13692664     0.00190
C336        C  0.93816844  0.42519139  0.14586734    -0.11980
C337        C  0.90231255  0.40542481  0.12627526     0.02690
C338        C  0.88184620  0.42186943  0.09208449    -0.11400
H339        H  0.93483537  0.51729073  0.09677173     0.08280
H340        H  0.95223255  0.41125296  0.17305490     0.05810
H341        H  0.85326268  0.40582482  0.07891472     0.05660
C342        C  0.83793055  0.58707057  0.18814428     0.02690
C343        C  0.87742012  0.57576834  0.20160795    -0.13460
C344        C  0.91302666  0.58994365  0.18138510     0.00190
C345        C  0.90697028  0.60014574  0.13856936    -0.11980
C346        C  0.86513028  0.60315351  0.12075328     0.02690
C347        C  0.83150024  0.59972313  0.14729596    -0.11400
H348        H  0.88067590  0.56580072  0.23355493     0.08280
H349        H  0.93371495  0.60279006  0.11894773     0.05810
H350        H  0.80016225  0.60691430  0.13638967     0.05660
O351        O  0.74347629  0.63017354  0.03462618    -0.80570
O352        O  0.83556722  0.46018599  0.02668461    -0.80600
O353        O  0.73999449  0.49559357  0.08121101    -0.80600
O354        O  0.86400372  0.56050819  0.05891626    -0.80550
O355        O  0.74714521  0.44436533  0.03416433    -0.80670
O356        O  0.82812497  0.61726053  0.05417041    -0.80590
O357        O  0.86730757  0.52181256  0.04762981    -0.80570
O358        O  0.73890275  0.58239287  0.07904019    -0.80610
C359        C  0.72621169  0.61651446  0.06592364     1.09120
C360        C  0.86392167  0.48189967  0.04954359     1.09000
C361        C  0.73273782  0.45748272  0.06888214     1.09140
C362        C  0.85367314  0.59519782  0.07533232     1.09020
O363        O  0.83381092  0.59844620  0.95653535    -0.80570
O364        O  0.73048971  0.47887177  0.95421559    -0.80650
O365        O  0.69304957  0.57276222  0.99948708    -0.80590
O366        O  0.87217358  0.50971195  0.96927278    -0.80570
O367        O  0.81311267  0.48977947  0.93968530    -0.80620
O368        O  0.74184758  0.59313301  0.95583616    -0.80580
O369        O  0.89342358  0.58210002  0.98713357    -0.80540
O370        O  0.68856780  0.48859084  0.00583871    -0.80610
Co371      Co  0.78745222  0.60195013  0.00137991     1.51530
Co372      Co  0.78250430  0.47322617  0.99030353     1.51690
Co373      Co  0.72072828  0.53519679  0.04026315     1.51570
Co374      Co  0.84125416  0.55368657  0.00186801     1.51470
O375        O  0.78070520  0.53551314  0.01397789    -1.42510
C376        C  0.87458948  0.59749843  0.95644313     1.09040
C377        C  0.69419308  0.47503973  0.96888996     1.09130
C378        C  0.70328460  0.59051366  0.96644703     1.09070
C379        C  0.85212416  0.49663046  0.93650800     1.09050
C380        C  0.61489681  0.96750166  0.36332202     0.02690
C381        C  0.62599758  0.92652848  0.35443609    -0.13460
C382        C  0.65978651  0.91059838  0.37596950     0.00190
C383        C  0.68151051  0.93313243  0.40896287    -0.11980
C384        C  0.67285313  0.97476418  0.41896469     0.02690
C385        C  0.63814422  0.99190216  0.39660574    -0.11400
H386        H  0.61157605  0.90840612  0.32757512     0.08280
H387        H  0.70864931  0.91935228  0.42347579     0.05810
H388        H  0.63065508  0.02427890  0.40355442     0.05660
C389        C  0.97475013  0.60116194  0.37293258     0.02690
C390        C  0.99893166  0.63111827  0.40000471    -0.13460
C391        C  0.97997281  0.65695902  0.43102429     0.00190
C392        C  0.93769323  0.64956659  0.43744517    -0.11980
C393        C  0.91286170  0.62612340  0.40679270     0.02690
C394        C  0.93122046  0.59919638  0.37705865    -0.11400
H395        H  0.03196358  0.63608153  0.39545163     0.08280
H396        H  0.92267512  0.67050230  0.45955270     0.05810
H397        H  0.91133465  0.58170507  0.35337374     0.05660
C398        C  0.75612584  0.78324621  0.30664219     0.01850
C399        C  0.78249392  0.76635657  0.33602728     0.01850
C400        C  0.78621074  0.72256188  0.33677754     0.01850
C401        C  0.76670534  0.69710189  0.30371844     0.01850
C402        C  0.73944324  0.71520010  0.27505824     0.01850
C403        C  0.73967630  0.75866616  0.27316930     0.01850
C404        C  0.64248490  0.63963541  0.13832430     0.02690
C405        C  0.66382292  0.61407373  0.11030633    -0.13460
C406        C  0.68591163  0.63439580  0.07954200     0.00190
C407        C  0.67180494  0.67413992  0.06713092    -0.11980
C408        C  0.63773922  0.69325137  0.08738166     0.02690
C409        C  0.62254987  0.67447983  0.12286438    -0.11400
H410        H  0.67544795  0.58497543  0.12165076     0.08280
H411        H  0.68699634  0.68977766  0.04211294     0.05810
H412        H  0.60141892  0.69147242  0.14257398     0.05660
O413        O  0.59329605  0.73836808  0.95647120    -0.80570
O414        O  0.50207430  0.81300718  0.93693562    -0.80600
O415        O  0.49176853  0.68988670  0.00536745    -0.80600
O416        O  0.58926255  0.89124071  0.98237694    -0.80550
O417        O  0.48540181  0.73090312  0.95267172    -0.80670
O418        O  0.59833044  0.82908581  0.95136548    -0.80590
O419        O  0.51652711  0.87309259  0.96722264    -0.80570
O420        O  0.57699176  0.69212829  0.00353782    -0.80610
C421        C  0.59287000  0.70063415  0.96888171     1.09120
C422        C  0.50446441  0.85250028  0.93430467     1.09000
C423        C  0.47948225  0.69520038  0.96828110     1.09140
C424        C  0.59884306  0.86998254  0.94978003     1.09020
O425        O  0.62357298  0.83247012  0.04557985    -0.80570
O426        O  0.44729702  0.75468398  0.02903350    -0.80650
O427        O  0.58124322  0.74104057  0.08280740    -0.80590
O428        O  0.52817152  0.86837754  0.04584471    -0.80570
O429        O  0.46670220  0.84066703  0.02015104    -0.80620
O430        O  0.62971319  0.74577092  0.03772053    -0.80580
O431        O  0.56688493  0.86593048  0.05795216    -0.80540
O432        O  0.49103702  0.73737769  0.08005805    -0.80610
Co433      Co  0.60436252  0.78661714  0.99884720     1.51530
Co434      Co  0.48007970  0.78522467  0.98642455     1.51690
Co435      Co  0.53616971  0.72131763  0.04158723     1.51570
Co436      Co  0.55916994  0.84076646  0.00072293     1.51470
O437        O  0.53906680  0.78176052  0.01466550    -1.42510
C438        C  0.60418695  0.85870775  0.06906251     1.09040
C439        C  0.45382788  0.73819438  0.06397102     1.09130
C440        C  0.61690838  0.73087060  0.07092827     1.09070
C441        C  0.48828127  0.86823303  0.04418986     1.09050
C442        C  0.46879413  0.90183562  0.07028433     0.02690
C443        C  0.49381406  0.93278613  0.09488627    -0.13460
C444        C  0.47685451  0.95677741  0.12823623     0.00190
C445        C  0.43338283  0.95486184  0.13126422    -0.11980
C446        C  0.40814125  0.92807639  0.10374608     0.02690
C447        C  0.42564511  0.90134191  0.07382436    -0.11400
H448        H  0.52630912  0.93723493  0.08845933     0.08280
H449        H  0.41918886  0.97178765  0.15697229     0.05810
H450        H  0.40576386  0.87775039  0.05600299     0.05660
C451        C  0.62458141  0.87971075  0.10825294     0.02690
C452        C  0.60533707  0.91028459  0.13455174    -0.13460
C453        C  0.62451971  0.92602316  0.17352347     0.00190
C454        C  0.66136880  0.90853635  0.18712764    -0.11980
C455        C  0.67703737  0.87495906  0.16352130     0.02690
C456        C  0.66209066  0.86416918  0.12284147    -0.11400
H457        H  0.57524206  0.92080925  0.12603359     0.08280
H458        H  0.67368037  0.91599438  0.21886394     0.05810
H459        H  0.67544224  0.83783239  0.10594134     0.05660
C460        C  0.63632828  0.38420078  0.09211259     0.02690
C461        C  0.66919294  0.40390793  0.06961598    -0.13460
C462        C  0.70048778  0.43168563  0.09084156     0.00190
C463        C  0.69941595  0.43694979  0.13440385    -0.11980
C464        C  0.67287494  0.41050487  0.15629841     0.02690
C465        C  0.63754230  0.39052716  0.13563961    -0.11400
H466        H  0.67071005  0.39755860  0.03630173     0.08280
H467        H  0.72521020  0.45442566  0.15142977     0.05810
H468        H  0.61585343  0.37241006  0.15372974     0.05660
C469        C  0.84811556  0.28645629  0.26730982     0.01850
C470        C  0.82074455  0.31019159  0.24417792     0.01850
C471        C  0.77763452  0.30499555  0.24811861     0.01850
C472        C  0.76272602  0.27141465  0.26991782     0.01850
C473        C  0.78882394  0.25584977  0.30058356     0.01850
C474        C  0.83193005  0.25967837  0.29650738     0.01850
C475        C  0.69994056  0.11932840  0.40987239     0.02690
C476        C  0.67111957  0.09889202  0.37874581    -0.13460
C477        C  0.63623239  0.12119748  0.36166334     0.00190
C478        C  0.63310883  0.16371745  0.37436521    -0.11980
C479        C  0.66694474  0.18438690  0.39700081     0.02690
C480        C  0.69142204  0.16069410  0.42336677    -0.11400
H481        H  0.67610988  0.06692638  0.36749726     0.08280
H482        H  0.61049761  0.18246281  0.35838886     0.05810
H483        H  0.71342314  0.17774821  0.44550037     0.05660
O484        O  0.58179333  0.02576102  0.33596994    -0.80570
O485        O  0.61811348  0.08201134  0.20876134    -0.80600
O486        O  0.56868961  0.94579314  0.21713209    -0.80600
O487        O  0.58146495  0.12247502  0.30443127    -0.80550
O488        O  0.61764259  0.99434327  0.20680233    -0.80670
O489        O  0.59293766  0.06352809  0.33356567    -0.80590
O490        O  0.57300720  0.13024724  0.21575364    -0.80570
O491        O  0.56180049  0.96340866  0.30500545    -0.80610
C492        C  0.58411007  0.98584151  0.33334760     1.09120
C493        C  0.60562982  0.11757792  0.19936525     1.09000
C494        C  0.60368924  0.95649050  0.20214105     1.09140
C495        C  0.60348052  0.10176986  0.33067258     1.09020
O496        O  0.51714081  0.08696096  0.35833940    -0.80570
O497        O  0.54095673  0.99104430  0.15726328    -0.80650
O498        O  0.47543352  0.99457792  0.28069683    -0.80590
O499        O  0.49324416  0.09126865  0.20937916    -0.80570
O500        O  0.53922816  0.07600590  0.16157300    -0.80620
O501        O  0.50399359  0.01341114  0.34009189    -0.80580
O502        O  0.48668446  0.09671066  0.29727253    -0.80540
O503        O  0.48967151  0.98235972  0.19972850    -0.80610
Co504      Co  0.53628754  0.05660168  0.30816556     1.51530
Co505      Co  0.57768150  0.03627379  0.18940462     1.51690
Co506      Co  0.52575997  0.97624834  0.25152666     1.51570
Co507      Co  0.53539669  0.10295398  0.25667875     1.51470
O508        O  0.55130368  0.03730514  0.24961469    -1.42510
C509        C  0.48537247  0.09864812  0.33765857     1.09040
C510        C  0.50360409  0.97864190  0.16320794     1.09130
C511        C  0.47138691  0.00119458  0.31938619     1.09070
C512        C  0.50475005  0.09115281  0.17158388     1.09050
O513        O  0.49887601  0.36853303  0.98560509    -0.80570
O514        O  0.53586482  0.18973120  0.04647221    -0.80600
O515        O  0.48412764  0.22682040  0.95624945    -0.80600
O516        O  0.48298331  0.32654561  0.06859420    -0.80550
O517        O  0.53739548  0.18602236  0.96155100    -0.80670
O518        O  0.51479687  0.38755970  0.05844607    -0.80590
O519        O  0.48898106  0.23687760  0.06203878    -0.80570
O520        O  0.46773147  0.30893951  0.97053170    -0.80610
C521        C  0.46598967  0.34847993  0.97238651     1.09120
C522        C  0.50136679  0.19917151  0.06218184     1.09000
C523        C  0.49998030  0.19127776  0.94961095     1.09140
C524        C  0.48309271  0.36741499  0.07146681     1.09020
O525        O  0.59011743  0.36114241  0.03390081    -0.80570
O526        O  0.61245467  0.23460705  0.96250812    -0.80650
O527        O  0.55168919  0.33488747  0.93457268    -0.80590
O528        O  0.56962966  0.24349938  0.09934515    -0.80570
O529        O  0.61509770  0.23752716  0.05125010    -0.80620
O530        O  0.57769193  0.36315691  0.99565079    -0.80580
O531        O  0.57779703  0.33123361  0.09216633    -0.80540
O532        O  0.56087778  0.24901267  0.91798111    -0.80610
Co533      Co  0.53258287  0.33675221  0.02793836     1.51530
Co534      Co  0.57376255  0.21796092  0.00617223     1.51690
Co535      Co  0.51773058  0.28039628  0.94948288     1.51570
Co536      Co  0.53112437  0.28446487  0.07342784     1.51470
O537        O  0.54629076  0.27805184  0.00826633    -1.42510
C538        C  0.60088106  0.35681919  0.07175995     1.09040
C539        C  0.59657679  0.23410848  0.92542470     1.09130
C540        C  0.57653956  0.36197161  0.95571173     1.09070
C541        C  0.60323956  0.22869806  0.08711667     1.09050
C542        C  0.41787979  0.15120564  0.12582458     0.02690
C543        C  0.43864865  0.12059687  0.14706542    -0.13460
C544        C  0.48039927  0.11372805  0.13983394     0.00190
C545        C  0.49997135  0.13556773  0.10753677    -0.11980
C546        C  0.47862821  0.16721105  0.08626015     0.02690
C547        C  0.43704241  0.17370032  0.09509415    -0.11400
H548        H  0.42341803  0.10549288  0.17248931     0.08280
H549        H  0.53265047  0.13092187  0.10187297     0.05810
H550        H  0.42072229  0.19912162  0.08110258     0.05660
C551        C  0.46928194  0.10407507  0.86495821     0.02690
C552        C  0.42557657  0.10388591  0.86753866    -0.13460
C553        C  0.40754011  0.12919617  0.89872195     0.00190
C554        C  0.43261198  0.15320173  0.92864766    -0.11980
C555        C  0.47573185  0.15659719  0.92518035     0.02690
C556        C  0.49415442  0.13090688  0.89422234    -0.11400
H557        H  0.40560681  0.08696158  0.84354473     0.08280
H558        H  0.41788761  0.17411643  0.95098515     0.05810
H559        H  0.52769581  0.13351486  0.89170354     0.05660
C560        C  0.63625964  0.22554926  0.81831803     0.02690
C561        C  0.63005687  0.24069927  0.85906433    -0.13460
C562        C  0.61665998  0.21377601  0.88907782     0.00190
C563        C  0.61018704  0.16990400  0.87760720    -0.11980
C564        C  0.61784328  0.15366359  0.83627130     0.02690
C565        C  0.63160842  0.18225623  0.80711212    -0.11400
H566        H  0.63264434  0.27446373  0.86657256     0.08280
H567        H  0.59750039  0.14899910  0.90006749     0.05810
H568        H  0.63602638  0.17140138  0.77497981     0.05660
O569        O  0.63357965  0.07252242  0.71001972    -0.80570
O570        O  0.46947249  0.05218001  0.80498624    -0.80600
O571        O  0.49446818  0.10971150  0.70133981    -0.80600
O572        O  0.56877158  0.09413024  0.83009760    -0.80550
O573        O  0.45182187  0.05759998  0.71932867    -0.80670
O574        O  0.62540323  0.08758537  0.79480664    -0.80590
O575        O  0.52971903  0.08104100  0.83219473    -0.80570
O576        O  0.58293226  0.11466990  0.70377401    -0.80610
C577        C  0.61861004  0.10362368  0.69304522     1.09120
C578        C  0.48981927  0.07826232  0.83157150     1.09000
C579        C  0.45792197  0.09249680  0.70227980     1.09140
C580        C  0.60407985  0.10961957  0.82045792     1.09020
O581        O  0.60596089  0.99028093  0.79736825    -0.80570
O582        O  0.49090471  0.98065286  0.69834543    -0.80650
O583        O  0.58039261  0.03344074  0.65922204    -0.80590
O584        O  0.51991296  0.00109781  0.83974967    -0.80570
O585        O  0.50898535  0.96914040  0.78042640    -0.80620
O586        O  0.60034663  0.99031350  0.70799778    -0.80580
O587        O  0.59157061  0.01961964  0.85861468    -0.80540
O588        O  0.49536185  0.03255402  0.65620355    -0.80610
Co589      Co  0.60939599  0.03598337  0.75306605     1.51530
Co590      Co  0.48496671  0.01675995  0.75120352     1.51690
Co591      Co  0.53914740  0.07146489  0.68620293     1.51570
Co592      Co  0.56222437  0.03550326  0.80717341     1.51470
O593        O  0.54308689  0.04728835  0.74738886    -1.42510
C594        C  0.60376428  0.98781029  0.83762042     1.09040
C595        C  0.48370570  0.99511326  0.66253897     1.09130
C596        C  0.59848794  0.00059944  0.66978639     1.09070
C597        C  0.50938693  0.96722816  0.81966140     1.09050
C598        C  0.60407151  0.39419215  0.93587437     0.02690
C599        C  0.62898447  0.42490459  0.96125572    -0.13460
C600        C  0.65911675  0.45203334  0.94365215     0.00190
C601        C  0.65960658  0.45256632  0.90045181    -0.11980
C602        C  0.63651667  0.42197257  0.87512192     0.02690
C603        C  0.60853881  0.39304488  0.89245601    -0.11400
H604        H  0.62607802  0.42673213  0.99471662     0.08280
H605        H  0.68234620  0.47331901  0.88637222     0.05810
H606        H  0.59254822  0.36828198  0.87253907     0.05660
C607        C  0.97620876  0.39982503  0.57264319     0.02690
C608        C  0.99903752  0.42603612  0.60380473    -0.13460
C609        C  0.97865136  0.45378080  0.63157603     0.00190
C610        C  0.93542556  0.45654947  0.62665292    -0.11980
C611        C  0.91240699  0.43036720  0.59661222     0.02690
C612        C  0.93273236  0.40315152  0.56888074    -0.11400
H613        H  0.03252786  0.42339216  0.60798983     0.08280
H614        H  0.91899875  0.47554711  0.64929530     0.05810
H615        H  0.91416362  0.38138524  0.54767457     0.05660
C616        C  0.73308952  0.34583095  0.64418018     0.01850
C617        C  0.75135463  0.38569443  0.65784214     0.01850
C618        C  0.73735266  0.40630523  0.69471456     0.01850
C619        C  0.70196070  0.38929114  0.71453646     0.01850
C620        C  0.68613975  0.34841387  0.70200023     0.01850
C621        C  0.69776444  0.32962642  0.66383920     0.01850
C622        C  0.63699279  0.16695649  0.59867511     0.02690
C623        C  0.61527392  0.14507911  0.62863934    -0.13460
C624        C  0.63730987  0.11781074  0.65376108     0.00190
C625        C  0.67702838  0.10451588  0.64054536    -0.11980
C626        C  0.69422235  0.11946862  0.60336527     0.02690
C627        C  0.67126077  0.14805202  0.58058545    -0.11400
H628        H  0.58659828  0.15791621  0.63982451     0.08280
H629        H  0.69434167  0.08287434  0.65896979     0.05810
H630        H  0.68551756  0.16290369  0.55452715     0.05660
O631        O  0.74976752  0.99147063  0.56631533    -0.80570
O632        O  0.82895629  0.97607501  0.46163855    -0.80600
O633        O  0.69714466  0.03578376  0.46296346    -0.80600
O634        O  0.89982691  0.02353969  0.56070318    -0.80550
O635        O  0.74220785  0.98664616  0.45179672    -0.80670
O636        O  0.83957093  0.99146358  0.57231707    -0.80590
O637        O  0.88394623  0.01051663  0.48837505    -0.80570
O638        O  0.70080879  0.03509008  0.54734752    -0.80610
C639        C  0.71135422  0.00171128  0.56436958     1.09120
C640        C  0.86863000  0.97863663  0.46819988     1.09000
C641        C  0.70525397  0.99998922  0.44683637     1.09140
C642        C  0.88027276  0.99160221  0.57382297     1.09020
O643        O  0.83638841  0.08923570  0.59268220    -0.80570
O644        O  0.75385329  0.06640321  0.41704105    -0.80650
O645        O  0.74738130  0.11589476  0.55251162    -0.80590
O646        O  0.87403895  0.08494475  0.49753900    -0.80570
O647        O  0.84458878  0.06371663  0.43498018    -0.80620
O648        O  0.75084397  0.07306893  0.60169719    -0.80580
O649        O  0.87110952  0.09689819  0.53614771    -0.80540
O650        O  0.74825843  0.11322657  0.46768872    -0.80610
Co651      Co  0.79469412  0.03729636  0.57577474     1.51530
Co652      Co  0.79293079  0.02513694  0.44683103     1.51690
Co653      Co  0.72859938  0.07403066  0.50807908     1.51570
Co654      Co  0.84847909  0.03880936  0.53010195     1.51470
O655        O  0.78894067  0.04901228  0.50928209    -1.42510
C656        C  0.86197909  0.11166696  0.57176599     1.09040
C657        C  0.73756573  0.10004358  0.43098265     1.09130
C658        C  0.73481053  0.10488855  0.58715790     1.09070
C659        C  0.87271905  0.08588074  0.45755021     1.09050
C660        C  0.90673192  0.11171050  0.43853973     0.02690
C661        C  0.90584226  0.11616388  0.39539968    -0.13460
C662        C  0.93351903  0.14549758  0.37851854     0.00190
C663        C  0.96902810  0.16166082  0.40165824    -0.11980
C664        C  0.96902837  0.16147533  0.44507507     0.02690
C665        C  0.93867873  0.13498903  0.46358828    -0.11400
H666        H  0.87890935  0.10340690  0.37639870     0.08280
H667        H  0.98984459  0.18416401  0.38732667     0.05810
H668        H  0.93837834  0.13463660  0.49725969     0.05660
C669        C  0.87690513  0.15593066  0.58511189     0.02690
C670        C  0.84588946  0.18369887  0.59554603    -0.13460
C671        C  0.85440880  0.22718003  0.59702449     0.00190
C672        C  0.89467543  0.24407724  0.59120531    -0.11980
C673        C  0.92745003  0.21793312  0.58227568     0.02690
C674        C  0.91818363  0.17331232  0.57825528    -0.11400
H675        H  0.81408109  0.17171443  0.59980825     0.08280
H676        H  0.90006739  0.27805425  0.59201130     0.05810
H677        H  0.94216220  0.15262724  0.56787907     0.05660
C678        C  0.42047851  0.10982229  0.68176642     0.02690
C679        C  0.41093918  0.10525051  0.63773524    -0.13460
C680        C  0.36926854  0.11036448  0.62111197     0.00190
C681        C  0.33791583  0.11926882  0.64955562    -0.11980
C682        C  0.34755450  0.12190254  0.69285310     0.02690
C683        C  0.38834037  0.11792476  0.70828423    -0.11400
H684        H  0.43509575  0.09569186  0.61692446     0.08280
H685        H  0.30578021  0.12193318  0.63824357     0.05810
H686        H  0.39476672  0.11937299  0.74196967     0.05660
C687        C  0.23191010  0.23117068  0.86155642     0.01850
C688        C  0.19371668  0.24058772  0.84196113     0.01850
C689        C  0.17738368  0.21556860  0.80723213     0.01850
C690        C  0.19435086  0.17567170  0.79881727     0.01850
C691        C  0.23302243  0.16597037  0.81924807     0.01850
C692        C  0.24804798  0.19096990  0.85478054     0.01850
O693        O  0.37574274  0.01472490  0.46486023    -0.80570
O694        O  0.19754302  0.07129643  0.49894457    -0.80600
O695        O  0.23594591  0.98144651  0.45196155    -0.80600
O696        O  0.33472785  0.10058388  0.45722960    -0.80550
O697        O  0.19549435  0.98630637  0.50517688    -0.80670
O698        O  0.39631852  0.08735247  0.48543808    -0.80590
O699        O  0.24630636  0.09215093  0.45584473    -0.80570
O700        O  0.31603695  0.99912925  0.43524794    -0.80610
C701        C  0.35497792  0.00379450  0.43169454     1.09120
C702        C  0.20795143  0.08937122  0.46587761     1.09000
C703        C  0.20059894  0.97508107  0.46781235     1.09140
C704        C  0.37499624  0.10001179  0.45458001     1.09020
O705        O  0.36760670  0.06374237  0.55986101    -0.80570
O706        O  0.24147301  0.98919564  0.57949725    -0.80650
O707        O  0.34551782  0.96374791  0.51833134    -0.80590
O708        O  0.24582108  0.12766597  0.53635842    -0.80570
O709        O  0.24176188  0.07890414  0.58026753    -0.80620
O710        O  0.37241180  0.02508970  0.54590497    -0.80580
O711        O  0.33000359  0.11914677  0.55463093    -0.80540
O712        O  0.26049844  0.94447099  0.52909008    -0.80610
Co713      Co  0.34523660  0.05696620  0.50167184     1.51530
Co714      Co  0.22511089  0.03243959  0.53976930     1.51690
Co715      Co  0.28995595  0.97687894  0.48543456     1.51570
Co716      Co  0.29004182  0.10249723  0.50215268     1.51470
O717        O  0.28580963  0.03611138  0.51418196    -1.42510
C718        C  0.35586130  0.09807521  0.57632093     1.09040
C719        C  0.24361864  0.95157467  0.56400433     1.09130
C720        C  0.37230794  0.98503543  0.54341574     1.09070
C721        C  0.22921764  0.11337793  0.56770064     1.09050
O722        O  0.03800604  0.36971881  0.54907573    -0.80570
O723        O  0.09124082  0.24374171  0.58591184    -0.80600
O724        O  0.95973990  0.25484921  0.52939572    -0.80600
O725        O  0.13345000  0.33224163  0.55716341    -0.80550
O726        O  0.00216738  0.23799973  0.58167720    -0.80670
O727        O  0.07667220  0.36746065  0.56340325    -0.80590
O728        O  0.14176207  0.24714506  0.54364058    -0.80570
O729        O  0.97814311  0.34049319  0.52070370    -0.80610
C730        C  0.99801329  0.36787220  0.54629050     1.09120
C731        C  0.12647854  0.23161574  0.57531279     1.09000
C732        C  0.96541988  0.23863161  0.56461287     1.09140
C733        C  0.11149813  0.35733067  0.57924636     1.09020
O734        O  0.10225077  0.39521415  0.48900563    -0.80570
O735        O  0.00468687  0.19042262  0.50719510    -0.80650
O736        O  0.01842535  0.31234943  0.43974225    -0.80590
O737        O  0.10924491  0.24402507  0.46129389    -0.80570
O738        O  0.08960870  0.19581297  0.50550879    -0.80620
O739        O  0.03062310  0.37298244  0.46979046    -0.80580
O740        O  0.11617648  0.33389388  0.45966167    -0.80540
O741        O  0.00117210  0.23130418  0.45452480    -0.80610
Co742      Co  0.07250839  0.34334732  0.50572964     1.51530
Co743      Co  0.04800013  0.22294663  0.54398883     1.51690
Co744      Co  0.99381021  0.28544882  0.48781975     1.51570
Co745      Co  0.11804589  0.28977684  0.50624395     1.51470
O746        O  0.05171317  0.28363351  0.51810614    -1.42510
C747        C  0.11575404  0.37464427  0.45765119     1.09040
C748        C  0.99376362  0.19572634  0.46978641     1.09130
C749        C  0.02273640  0.35148858  0.43644904     1.09070
C750        C  0.10676328  0.20571956  0.47182637     1.09050
C751        C  0.14669175  0.14176559  0.37881697     0.02690
C752        C  0.17299734  0.11385218  0.39980161    -0.13460
C753        C  0.17565680  0.11376995  0.44354479     0.00190
C754        C  0.15005154  0.14080201  0.46660771    -0.11980
C755        C  0.12744239  0.17206528  0.44694464     0.02690
C756        C  0.12705957  0.17278661  0.40349258    -0.11400
H757        H  0.19272414  0.09275168  0.38297057     0.08280
H758        H  0.15026977  0.13961062  0.50012423     0.05810
H759        H  0.11215963  0.19886791  0.38989214     0.05660
C760        C  0.11755835  0.41574515  0.68867617     0.02690
C761        C  0.12531523  0.38089227  0.71260294    -0.13460
C762        C  0.13274671  0.34150358  0.69329615     0.00190
C763        C  0.13291143  0.33647002  0.64962716    -0.11980
C764        C  0.12292042  0.36943797  0.62428203     0.02690
C765        C  0.11538171  0.40951850  0.64406759    -0.11400
H766        H  0.12421983  0.38407515  0.74643503     0.08280
H767        H  0.13767251  0.30546384  0.63537083     0.05810
H768        H  0.10547981  0.43486216  0.62509984     0.05660
C769        C  0.14238971  0.19086560  0.58899586     0.02690
C770        C  0.12116892  0.16881861  0.61913633    -0.13460
C771        C  0.13686727  0.13126090  0.63298958     0.00190
C772        C  0.16404093  0.10882785  0.60793231    -0.11980
C773        C  0.18921569  0.13125531  0.58113423     0.02690
C774        C  0.17759157  0.17234165  0.57083790    -0.11400
H775        H  0.09782866  0.18453747  0.63720534     0.08280
H776        H  0.17426859  0.07880794  0.61832890     0.05810
H777        H  0.19605707  0.18983064  0.54930453     0.05660
C778        C  0.68738677  0.16709429  0.13727963     0.02690
C779        C  0.66544973  0.13401145  0.15482932    -0.13460
C780        C  0.62384145  0.14050682  0.16411252     0.00190
C781        C  0.60233286  0.17167323  0.14172366    -0.11980
C782        C  0.62362639  0.19553239  0.11138843     0.02690
C783        C  0.66646932  0.18988126  0.10727755    -0.11400
H784        H  0.68309201  0.11286362  0.17366711     0.08280
H785        H  0.57038632  0.17833948  0.14887259     0.05810
H786        H  0.68455449  0.21187290  0.08951377     0.05660
C787        C  0.13680247  0.67015899  0.10517898     0.02690
C788        C  0.17153882  0.65309031  0.08639744    -0.13460
C789        C  0.18970092  0.61795564  0.10295651     0.00190
C790        C  0.17030243  0.59899648  0.13702191    -0.11980
C791        C  0.13217004  0.61408506  0.15226289     0.02690
C792        C  0.11303547  0.64626835  0.13169389    -0.11400
H793        H  0.18874684  0.67153004  0.06456909     0.08280
H794        H  0.18533051  0.57360557  0.15227138     0.05810
H795        H  0.08572175  0.66010976  0.14496036     0.05660
C796        C  0.37821640  0.37553678  0.12078772     0.02690
C797        C  0.41728402  0.36250209  0.10906633    -0.13460
C798        C  0.44456499  0.38824751  0.08702292     0.00190
C799        C  0.43200068  0.42982112  0.07814528    -0.11980
C800        C  0.39173606  0.44378635  0.08994547     0.02690
C801        C  0.36583700  0.41589505  0.11174613    -0.11400
H802        H  0.42565514  0.33082185  0.11612655     0.08280
H803        H  0.45217408  0.45003893  0.06063306     0.05810
H804        H  0.33479306  0.42475834  0.12034584     0.05660
C805        C  0.37245211  0.12791396  0.34178915     0.02690
C806        C  0.41322804  0.12294270  0.32932585    -0.13460
C807        C  0.44468641  0.10932872  0.35707426     0.00190
C808        C  0.43444427  0.10313132  0.39972162    -0.11980
C809        C  0.39255692  0.10893699  0.41266258     0.02690
C810        C  0.36254771  0.11989691  0.38241790    -0.11400
H811        H  0.42000936  0.12902590  0.29719822     0.08280
H812        H  0.45780548  0.09215592  0.42156969     0.05810
H813        H  0.32988798  0.12161966  0.38992514     0.05660
C814        C  0.14187160  0.37366236  0.34374760     0.02690
C815        C  0.13630972  0.41452108  0.33158607    -0.13460
C816        C  0.12451830  0.44682369  0.36006453     0.00190
C817        C  0.11907313  0.43609994  0.40312932    -0.11980
C818        C  0.12543377  0.39365490  0.41588452     0.02690
C819        C  0.13758062  0.36409575  0.38520671    -0.11400
H820        H  0.14096434  0.42071698  0.29905607     0.08280
H821        H  0.10812658  0.45944817  0.42543354     0.05810
H822        H  0.14279491  0.33185925  0.39294564     0.05660
C823        C  0.22358031  0.26660184  0.19965746     0.01850
C824        C  0.26194985  0.25286988  0.18753735     0.01850
C825        C  0.27322210  0.21286438  0.19834565     0.01850
C826        C  0.24956612  0.18872940  0.22590594     0.01850
C827        C  0.20916353  0.20258956  0.23666786     0.01850
C828        C  0.20041495  0.24527053  0.22885314     0.01850
C829        C  0.19205291  0.32056644  0.32397241    -0.26750
C830        C  0.15497132  0.34018146  0.31403763    -0.14830
C831        C  0.13141468  0.32694071  0.27724379     0.35800
C832        C  0.14503469  0.29359673  0.25154693    -0.26200
C833        C  0.18272841  0.27413272  0.26119104    -0.15440
C834        C  0.20744114  0.28958919  0.29717782     0.36890
N835        N  0.24947832  0.27727926  0.30612721    -0.89690
H836        H  0.21081852  0.33146499  0.35174487     0.18000
H837        H  0.12707125  0.28393961  0.22294025     0.17990
N838        N  0.09385833  0.34718930  0.26572621    -0.88720
H839        H  0.26869850  0.30466320  0.31149020     0.35370
H840        H  0.26145054  0.26223342  0.27993237     0.40470
H841        H  0.06956195  0.32400494  0.26213720     0.40090
H842        H  0.09786767  0.35985484  0.23652968     0.34980
C843        C  0.27741221  0.18025445  0.29810062    -0.26750
C844        C  0.27478215  0.16447341  0.25638750    -0.14830
C845        C  0.30108690  0.13149635  0.24455844     0.35800
C846        C  0.33274228  0.11970615  0.27281287    -0.26200
C847        C  0.33886126  0.14056240  0.31244627    -0.15440
C848        C  0.31064744  0.17121541  0.32519347     0.36890
N849        N  0.31653239  0.19408961  0.36514195    -0.89690
H850        H  0.25439998  0.20125815  0.30938281     0.18000
H851        H  0.35269854  0.09436098  0.26366354     0.17990
N852        N  0.29497051  0.10902383  0.20471309    -0.88720
H853        H  0.29299147  0.21559146  0.36951190     0.35370
H854        H  0.34485054  0.21186658  0.36484072     0.40470
H855        H  0.28790026  0.07742708  0.21016271     0.40090
H856        H  0.32361302  0.10974089  0.18999753     0.34980
C857        C  0.33921105  0.34732657  0.18018404    -0.26750
C858        C  0.34842910  0.34436688  0.13789946    -0.14830
C859        C  0.33163997  0.30975483  0.11248008     0.35800
C860        C  0.30264158  0.28084708  0.12849812    -0.26200
C861        C  0.29321046  0.28369372  0.17076954    -0.15440
C862        C  0.31334632  0.31619090  0.19727291     0.36890
N863        N  0.30822183  0.31689490  0.24159764    -0.89690
H864        H  0.35373628  0.37285534  0.20018530     0.18000
H865        H  0.28790933  0.25573965  0.10816933     0.17990
N866        N  0.34507908  0.30376026  0.07063374    -0.88720
H867        H  0.32381384  0.34351294  0.25645019     0.35370
H868        H  0.32311477  0.29076959  0.25275104     0.40470
H869        H  0.33457341  0.32915582  0.05421413     0.40090
H870        H  0.33135421  0.27574682  0.05682159     0.34980
C871        C  0.17175341  0.11846632  0.30758456    -0.26750
C872        C  0.14578177  0.14358843  0.33193026    -0.14830
C873        C  0.12363032  0.17410617  0.31022711     0.35800
C874        C  0.14161025  0.19069354  0.27500229    -0.26200
C875        C  0.17943465  0.17544778  0.26070551    -0.15440
C876        C  0.18687760  0.13341987  0.27040286     0.36890
N877        N  0.20614749  0.10513036  0.24159580    -0.89690
H878        H  0.18118302  0.08801308  0.31709140     0.18000
H879        H  0.12593351  0.21496975  0.25909461     0.17990
N880        N  0.08301232  0.18670401  0.32255877    -0.88720
H881        H  0.22887217  0.08937461  0.25839163     0.35370
H882        H  0.18324369  0.08221755  0.23079563     0.40470
H883        H  0.06259536  0.16000767  0.31934836     0.40090
H884        H  0.07117661  0.20876541  0.30250740     0.34980
C885        C  0.20555811  0.16181957  0.72553507    -0.26750
C886        C  0.18076157  0.15355703  0.75884049    -0.14830
C887        C  0.14044838  0.13427354  0.75122488     0.35800
C888        C  0.12614391  0.12406235  0.70956026    -0.26200
C889        C  0.15160680  0.13500004  0.67662900    -0.15440
C890        C  0.19137929  0.15512848  0.68543707     0.36890
N891        N  0.21651214  0.17298184  0.65408437    -0.89690
H892        H  0.23443090  0.17980491  0.72941031     0.18000
H893        H  0.09496034  0.10989051  0.70294783     0.17990
N894        N  0.11383914  0.12681263  0.78526788    -0.88720
H895        H  0.24616459  0.16029568  0.65585911     0.35370
H896        H  0.22015453  0.20560524  0.66029054     0.40470
H897        H  0.10565078  0.09455372  0.78439573     0.40090
H898        H  0.08639276  0.14300276  0.78030324     0.34980
C899        C  0.18775784  0.25322744  0.74244182    -0.26750
C900        C  0.15913078  0.23914855  0.77168271    -0.14830
C901        C  0.11926719  0.25699890  0.77238775     0.35800
C902        C  0.11057241  0.28993736  0.74589042    -0.26200
C903        C  0.14069174  0.30494193  0.71861360    -0.15440
C904        C  0.17911040  0.28549755  0.71600445     0.36890
N905        N  0.21050205  0.30068387  0.68863892    -0.89690
H906        H  0.21924492  0.24271141  0.74334322     0.18000
H907        H  0.08060887  0.30461776  0.74733793     0.17990
N908        N  0.08805878  0.24402918  0.80080581    -0.88720
H909        H  0.23717675  0.28275472  0.69035761     0.35370
H910        H  0.22001621  0.33137640  0.69937520     0.40470
H911        H  0.09827154  0.21932752  0.81840675     0.40090
H912        H  0.08373995  0.26957197  0.82185481     0.34980
C913        C  0.29230869  0.09894025  0.74090541    -0.26750
C914        C  0.31672449  0.13147115  0.72404625    -0.14830
C915        C  0.31849004  0.17213976  0.74305838     0.35800
C916        C  0.29428901  0.18018915  0.77726546    -0.26200
C917        C  0.26675218  0.14924903  0.79252061    -0.15440
C918        C  0.26685463  0.10756850  0.77519992     0.36890
N919        N  0.24170312  0.07462363  0.79241222    -0.89690
H920        H  0.29335873  0.06703843  0.72745776     0.18000
H921        H  0.29333506  0.21228058  0.78893371     0.17990
N922        N  0.34357117  0.20564985  0.72636715    -0.88720
H923        H  0.24595990  0.04578252  0.77628610     0.35370
H924        H  0.21014382  0.08112284  0.78762906     0.40470
H925        H  0.37514070  0.19952139  0.73197643     0.40090
H926        H  0.33891628  0.23448432  0.74235529     0.34980
C927        C  0.79782899  0.27410776  0.57550758    -0.26750
C928        C  0.82138202  0.25554573  0.60727308    -0.14830
C929        C  0.81480771  0.26565710  0.64943145     0.35800
C930        C  0.78517078  0.29430420  0.65939201    -0.26200
C931        C  0.76177338  0.31376028  0.62847809    -0.15440
C932        C  0.76768619  0.30362715  0.58594757     0.36890
N933        N  0.74342380  0.32309072  0.55411203    -0.89690
H934        H  0.80343203  0.26601799  0.54296189     0.18000
H935        H  0.78147775  0.30313572  0.69208860     0.17990
N936        N  0.83847198  0.24792265  0.68275090    -0.88720
H937        H  0.75161237  0.31185756  0.52439447     0.35370
H938        H  0.75148949  0.35538736  0.55628915     0.40470
H939        H  0.87032006  0.25550072  0.67939981     0.40090
H940        H  0.83374941  0.21511437  0.68016458     0.34980
C941        C  0.65098104  0.28597364  0.61339997    -0.26750
C942        C  0.67914062  0.28816665  0.64861734    -0.14830
C943        C  0.69170254  0.25076628  0.66625544     0.35800
C944        C  0.67607533  0.21298899  0.64916071    -0.26200
C945        C  0.64833555  0.21003443  0.61424006    -0.15440
C946        C  0.63520403  0.24661170  0.59583705     0.36890
N947        N  0.60712069  0.24359110  0.55953300    -0.89690
H948        H  0.64199036  0.31480429  0.59943674     0.18000
H949        H  0.68717168  0.18518600  0.66334117     0.17990
N950        N  0.72107800  0.24972339  0.70099092    -0.88720
H951        H  0.60084201  0.27371768  0.54984597     0.35370
H952        H  0.57862123  0.22999116  0.56838209     0.40470
H953        H  0.70652399  0.23281685  0.72400597     0.40090
H954        H  0.74583883  0.23134648  0.69179553     0.34980
C955        C  0.83479478  0.43847286  0.59367397    -0.26750
C956        C  0.87024622  0.41783504  0.60786014    -0.14830
C957        C  0.86703805  0.38807254  0.63856604     0.35800
C958        C  0.82865088  0.38019546  0.65541157    -0.26200
C959        C  0.79234662  0.39912622  0.64095901    -0.15440
C960        C  0.79538919  0.42870657  0.60986838     0.36890
N961        N  0.75881533  0.44894407  0.59520882    -0.89690
H962        H  0.83782307  0.46219759  0.57067600     0.18000
H963        H  0.82778951  0.35852862  0.67985831     0.17990
N964        N  0.90348159  0.36730867  0.65387873    -0.88720
H965        H  0.75521346  0.44264766  0.56284540     0.35370
H966        H  0.76411966  0.48149593  0.60068000     0.40470
H967        H  0.91336217  0.34755045  0.62945941     0.40090
H968        H  0.89598460  0.34768056  0.67804188     0.34980
C969        C  0.62672482  0.42019993  0.79761878    -0.26750
C970        C  0.65188098  0.41374926  0.83338078    -0.14830
C971        C  0.69441326  0.40483093  0.82958823     0.35800
C972        C  0.71136534  0.40528986  0.79079023    -0.26200
C973        C  0.68642980  0.40816621  0.75420088    -0.15440
C974        C  0.64339472  0.41656153  0.75774497     0.36890
N975        N  0.61594540  0.42119210  0.72171973    -0.89690
H976        H  0.59419581  0.42785148  0.80068556     0.18000
H977        H  0.74353558  0.39802067  0.78995483     0.17990
N978        N  0.72100606  0.39298097  0.86411401    -0.88720
H979        H  0.59403200  0.39567140  0.71986519     0.35370
H980        H  0.63226464  0.42005429  0.69406789     0.40470
H981        H  0.70399715  0.38472022  0.88990007     0.40090
H982        H  0.74154460  0.41866065  0.87309017     0.34980
C983        C  0.62995450  0.30210960  0.73117851    -0.26750
C984        C  0.67083221  0.32030245  0.73464515    -0.14830
C985        C  0.69941839  0.30695738  0.76590287     0.35800
C986        C  0.68661317  0.27629733  0.79271118    -0.26200
C987        C  0.64680251  0.25666472  0.78783686    -0.15440
C988        C  0.61750997  0.27014468  0.75740234     0.36890
N989        N  0.57532480  0.25233133  0.75217355    -0.89690
H990        H  0.60818241  0.31174925  0.70700099     0.18000
H991        H  0.70883497  0.26611455  0.81627528     0.17990
N992        N  0.74295726  0.32025792  0.76734272    -0.88720
H993        H  0.55498868  0.27643859  0.75902676     0.35370
H994        H  0.56943436  0.22908311  0.77334858     0.40470
H995        H  0.76051031  0.29383735  0.76108235     0.40090
H996        H  0.75153482  0.33029816  0.79822895     0.34980
C997        C  0.32959022  0.12288492  0.90182176    -0.26750
C998        C  0.36604439  0.14481800  0.89067685    -0.14830
C999        C  0.36384304  0.18440697  0.87347843     0.35800
C1000       C  0.32528244  0.20147718  0.86703006    -0.26200
C1001       C  0.28803310  0.17911693  0.87551075    -0.15440
C1002       C  0.29030210  0.13976370  0.89385082     0.36890
N1003       N  0.25266023  0.11640324  0.90285444    -0.89690
H1004       H  0.33158644  0.09261426  0.91576876     0.18000
H1005       H  0.32522276  0.23022368  0.85093277     0.17990
N1006       N  0.40099334  0.20673379  0.86102400    -0.88720
H1007       H  0.25377825  0.11088654  0.93481568     0.35370
H1008       H  0.25238842  0.08722283  0.88618992     0.40470
H1009       H  0.40317127  0.23626133  0.87714511     0.40090
H1010       H  0.39764308  0.21151878  0.82897433     0.34980
C1011       C  0.34884712  0.20420428  0.20106943    -0.26750
C1012       C  0.31012599  0.19668384  0.17975981    -0.14830
C1013       C  0.30652389  0.17619688  0.13966386     0.35800
C1014       C  0.34261532  0.16195253  0.12170601    -0.26200
C1015       C  0.38106089  0.16772303  0.14390428    -0.15440
C1016       C  0.38478350  0.18956716  0.18342891     0.36890
N1017       N  0.42498627  0.19645298  0.20525594    -0.89690
H1018       H  0.35069994  0.22090380  0.23151565     0.18000
H1019       H  0.34081524  0.14565374  0.09105398     0.17990
N1020       N  0.26629440  0.17005431  0.11780644    -0.88720
H1021       H  0.42187335  0.21249170  0.23424157     0.35370
H1022       H  0.44348674  0.21618639  0.18753861     0.40470
H1023       H  0.24772247  0.14984241  0.13495762     0.40090
H1024       H  0.26938937  0.15478414  0.08844379     0.34980
C1025       C  0.76596848  0.21183515  0.21877681    -0.26750
C1026       C  0.74085720  0.23920597  0.24218080    -0.14830
C1027       C  0.69832075  0.24200619  0.23150097     0.35800
C1028       C  0.68269554  0.22058630  0.19527927    -0.26200
C1029       C  0.70796894  0.19404042  0.17095795    -0.15440
C1030       C  0.74953045  0.18852011  0.18355968     0.36890
N1031       N  0.77483735  0.16027835  0.16007151    -0.89690
H1032       H  0.79926512  0.21110058  0.22617354     0.18000
H1033       H  0.65009603  0.22434962  0.18693749     0.17990
N1034       N  0.67062391  0.26683426  0.25597731    -0.88720
H1035       H  0.80502634  0.15992984  0.17397876     0.35370
H1036       H  0.77812845  0.17221306  0.13044831     0.40470
H1037       H  0.68583566  0.28018808  0.28329519     0.40090
H1038       H  0.66098368  0.29155403  0.23802227     0.34980
C1039       C  0.71095103  0.18448360  0.33736515    -0.26750
C1040       C  0.69503893  0.20831643  0.37097950    -0.14830
C1041       C  0.71656751  0.24607541  0.38591514     0.35800
C1042       C  0.75240950  0.25930153  0.36557209    -0.26200
C1043       C  0.76854963  0.23370444  0.33337927    -0.15440
C1044       C  0.74972142  0.19380176  0.32275757     0.36890
N1045       N  0.76731884  0.16309987  0.29491407    -0.89690
H1046       H  0.69591883  0.15518190  0.32511428     0.18000
H1047       H  0.76625106  0.29062219  0.37320004     0.17990
N1048       N  0.70271263  0.27150109  0.42070784    -0.88720
H1049       H  0.77115293  0.13578872  0.31135085     0.35370
H1050       H  0.79723905  0.17302427  0.28732370     0.40470
H1051       H  0.67498605  0.25860661  0.43200976     0.40090
H1052       H  0.69540379  0.30082550  0.40961817     0.34980
C1053       C  0.89967822  0.21247320  0.37786366    -0.26750
C1054       C  0.91263294  0.17672594  0.35481821    -0.14830
C1055       C  0.90000857  0.16900087  0.31282256     0.35800
C1056       C  0.87373365  0.19728869  0.29447888    -0.26200
C1057       C  0.85977299  0.23216269  0.31791172    -0.15440
C1058       C  0.87347512  0.24055717  0.35981644     0.36890
N1059       N  0.86102800  0.27629395  0.38504713    -0.89690
H1060       H  0.90875925  0.21772900  0.41080249     0.18000
H1061       H  0.86267967  0.19128844  0.26221669     0.17990
N1062       N  0.91272422  0.13204720  0.28978651    -0.88720
H1063       H  0.88814577  0.29478650  0.39380971     0.35370
H1064       H  0.84153979  0.29543173  0.36819964     0.40470
H1065       H  0.94533655  0.13474255  0.28777448     0.40090
H1066       H  0.90005958  0.13100518  0.25907575     0.34980
C1067       C  0.71539017  0.35000257  0.16051589    -0.26750
C1068       C  0.69577627  0.38243989  0.18235166    -0.14830
C1069       C  0.70064671  0.38788144  0.22594873     0.35800
C1070       C  0.72661597  0.36069373  0.24705774    -0.26200
C1071       C  0.74796239  0.32960819  0.22460684    -0.15440
C1072       C  0.74136738  0.32354667  0.18077774     0.36890
N1073       N  0.76092714  0.29205938  0.15537257    -0.89690
H1074       H  0.71132884  0.34592793  0.12670068     0.18000
H1075       H  0.73138537  0.36448029  0.28079862     0.17990
N1076       N  0.67968861  0.42070430  0.24814477    -0.88720
H1077       H  0.73721993  0.27207216  0.14086777     0.35370
H1078       H  0.77973692  0.27339294  0.17314115     0.40470
H1079       H  0.69189475  0.44960948  0.23866717     0.40090
H1080       H  0.68662056  0.42008361  0.28032516     0.34980
C1081       C  0.73620129  0.83614192  0.18878555    -0.26750
C1082       C  0.69328341  0.84088884  0.18624686    -0.14830
C1083       C  0.66529453  0.81262400  0.20521498     0.35800
C1084       C  0.68133501  0.78254328  0.23033387    -0.26200
C1085       C  0.72455026  0.78035759  0.23652059    -0.15440
C1086       C  0.75242940  0.80580201  0.21364500     0.36890
N1087       N  0.79719586  0.80335284  0.21664749    -0.89690
H1088       H  0.75717013  0.85708044  0.17275295     0.18000
H1089       H  0.66011338  0.76305273  0.24759129     0.17990
N1090       N  0.62058005  0.81476882  0.20060807    -0.88720
H1091       H  0.80743662  0.79453676  0.18696765     0.35370
H1092       H  0.80537965  0.77990520  0.23634101     0.40470
H1093       H  0.61171215  0.81108091  0.16879336     0.40090
H1094       H  0.61181041  0.84424305  0.21228337     0.34980
C1095       C  0.67711816  0.67144108  0.25007532    -0.26750
C1096       C  0.71676462  0.68954258  0.24233539    -0.14830
C1097       C  0.73278268  0.68708639  0.20256281     0.35800
C1098       C  0.70876045  0.66742931  0.17071857    -0.26200
C1099       C  0.66792953  0.65074629  0.17669390    -0.15440
C1100       C  0.65192525  0.65219299  0.21713188     0.36890
N1101       N  0.61042694  0.63627182  0.22539576    -0.89690
H1102       H  0.66507570  0.67419946  0.28124966     0.18000
H1103       H  0.72199607  0.66881393  0.14047195     0.17990
N1104       N  0.77211197  0.70732033  0.19338856    -0.88720
H1105       H  0.61357114  0.61214819  0.24621010     0.35370
H1106       H  0.59525690  0.62249285  0.19825515     0.40470
H1107       H  0.79029804  0.68479643  0.17881076     0.40090
H1108       H  0.76610120  0.72942128  0.17102845     0.34980
C1109       C  0.83701244  0.64191305  0.40165584    -0.26750
C1110       C  0.87855355  0.65019365  0.39119744    -0.14830
C1111       C  0.88965068  0.68640244  0.36995692     0.35800
C1112       C  0.85933107  0.71362596  0.35935676    -0.26200
C1113       C  0.81705551  0.70346107  0.36466330    -0.15440
C1114       C  0.80555363  0.66811640  0.38757203     0.36890
N1115       N  0.76236272  0.65937580  0.39657315    -0.89690
H1116       H  0.82923304  0.61496959  0.41977708     0.18000
H1117       H  0.86955177  0.74020342  0.34265786     0.17990
N1118       N  0.93215959  0.69549077  0.35888930    -0.88720
H1119       H  0.75974418  0.63343177  0.41531187     0.35370
H1120       H  0.74582877  0.65058498  0.36845459     0.40470
H1121       H  0.94194459  0.72514769  0.37235164     0.40090
H1122       H  0.93286379  0.69683555  0.32635199     0.34980
C1123       C  0.71569744  0.89004106  0.33233428    -0.26750
C1124       C  0.68130350  0.87749662  0.35534098    -0.14830
C1125       C  0.67014405  0.83491203  0.35968937     0.35800
C1126       C  0.69536790  0.80522242  0.34213208    -0.26200
C1127       C  0.73110869  0.81758450  0.32090714    -0.15440
C1128       C  0.74109811  0.86041831  0.31484047     0.36890
N1129       N  0.77663479  0.87514758  0.29264434    -0.89690
H1130       H  0.72340719  0.92329017  0.32900976     0.18000
H1131       H  0.68766319  0.77204501  0.34584115     0.17990
N1132       N  0.63432949  0.82084384  0.38198122    -0.88720
H1133       H  0.76529908  0.89057472  0.26667113     0.35370
H1134       H  0.79334171  0.85019789  0.28100566     0.40470
H1135       H  0.61743992  0.84602542  0.39344676     0.40090
H1136       H  0.64545306  0.80536444  0.40800333     0.34980
C1137       C  0.83991719  0.64858323  0.23280497    -0.26750
C1138       C  0.81818164  0.61079101  0.22095955    -0.14830
C1139       C  0.78424291  0.59619680  0.24360701     0.35800
C1140       C  0.77058680  0.62254538  0.27655841    -0.26200
C1141       C  0.79033318  0.66274279  0.28526061    -0.15440
C1142       C  0.82637581  0.67481360  0.26384782     0.36890
N1143       N  0.84635478  0.71600818  0.26888967    -0.89690
H1144       H  0.86683572  0.65920362  0.21572157     0.18000
H1145       H  0.74242504  0.61379440  0.29246402     0.17990
N1146       N  0.76356198  0.55595636  0.23247160    -0.88720
H1147       H  0.84624737  0.72894822  0.23954485     0.35370
H1148       H  0.87802812  0.71222509  0.27665912     0.40470
H1149       H  0.75010557  0.55746153  0.20226682     0.40090
H1150       H  0.73888485  0.55032423  0.25228997     0.34980
C1151       C  0.85814630  0.40219166  0.18563872    -0.26750
C1152       C  0.87702402  0.38048466  0.15258561    -0.14830
C1153       C  0.87456985  0.33657653  0.14798757     0.35800
C1154       C  0.85448867  0.31449539  0.17796164    -0.26200
C1155       C  0.83756387  0.33595229  0.21232676    -0.15440
C1156       C  0.83920557  0.38026108  0.21656472     0.36890
N1157       N  0.82385095  0.40366109  0.25206898    -0.89690
H1158       H  0.86043690  0.43640608  0.18857540     0.18000
H1159       H  0.85300145  0.28030943  0.17517014     0.17990
N1160       N  0.89320771  0.31406073  0.11412110    -0.88720
H1161       H  0.84944125  0.42068969  0.26702491     0.35370
H1162       H  0.81207142  0.38385109  0.27425499     0.40470
H1163       H  0.92533849  0.32219208  0.11521194     0.40090
H1164       H  0.88001020  0.32389181  0.08600749     0.34980
C1165       C  0.17120446  0.33550444  0.12405156    -0.26750
C1166       C  0.17878741  0.37474602  0.14509640    -0.14830
C1167       C  0.20157357  0.37909606  0.18377629     0.35800
C1168       C  0.21556653  0.34315001  0.20167774    -0.26200
C1169       C  0.20743269  0.30374388  0.18107778    -0.15440
C1170       C  0.18545361  0.29944123  0.14201319     0.36890
N1171       N  0.17804388  0.25855898  0.12099711    -0.89690
H1172       H  0.15372949  0.33312010  0.09420636     0.18000
H1173       H  0.23258461  0.34572181  0.23169955     0.17990
N1174       N  0.20991835  0.41997742  0.20460672    -0.88720
H1175       H  0.16180217  0.26112856  0.09226315     0.35370
H1176       H  0.15841375  0.24071610  0.13941679     0.40470
H1177       H  0.22946274  0.43744877  0.18578371     0.40090
H1178       H  0.22655223  0.41734258  0.23312157     0.34980
C1179       C  0.13045889  0.74720229  0.09685014    -0.26750
C1180       C  0.14362017  0.71369953  0.12041425    -0.14830
C1181       C  0.16718106  0.72201505  0.15847246     0.35800
C1182       C  0.17707994  0.76217593  0.17146265    -0.26200
C1183       C  0.16501696  0.79611832  0.14915546    -0.15440
C1184       C  0.14135231  0.78902775  0.11093193     0.36890
N1185       N  0.12883998  0.82288963  0.08576562    -0.89690
H1186       H  0.11293708  0.74084532  0.06734032     0.18000
H1187       H  0.19815232  0.76589151  0.19819006     0.17990
N1188       N  0.18429451  0.69096964  0.18441310    -0.88720
H1189       H  0.14436665  0.82011057  0.05766234     0.35370
H1190       H  0.13831491  0.85218753  0.10011915     0.40470
H1191       H  0.20407904  0.67168780  0.16782088     0.40090
H1192       H  0.16058592  0.67487669  0.19934822     0.34980
C1193       C  0.26690572  0.78572694  0.15970508    -0.26750
C1194       C  0.24972406  0.81191306  0.12978084    -0.14830
C1195       C  0.26202892  0.80719025  0.08788118     0.35800
C1196       C  0.29157167  0.77699486  0.07756980    -0.26200
C1197       C  0.30832035  0.75121424  0.10808065    -0.15440
C1198       C  0.29501644  0.75505130  0.14910904     0.36890
N1199       N  0.31205835  0.72955331  0.18075899    -0.89690
H1200       H  0.26121933  0.79164677  0.19254457     0.18000
H1201       H  0.30220543  0.77422658  0.04584303     0.17990
N1202       N  0.24647077  0.83313469  0.05572949    -0.88720
H1203       H  0.28709331  0.71311444  0.19377989     0.35370
H1204       H  0.32679800  0.74959907  0.20433360     0.40470
H1205       H  0.22446901  0.85366780  0.06723184     0.40090
H1206       H  0.27179739  0.85185627  0.04633701     0.34980
C1207       C  0.32132350  0.87147052  0.15301575    -0.26750
C1208       C  0.28711832  0.89600391  0.14342419    -0.14830
C1209       C  0.29265716  0.93195439  0.11998748     0.35800
C1210       C  0.33280505  0.94251973  0.10642507    -0.26200
C1211       C  0.36626716  0.91710418  0.11597388    -0.15440
C1212       C  0.36071876  0.88135482  0.13935469     0.36890
N1213       N  0.39547662  0.85578508  0.14981258    -0.89690
H1214       H  0.31816899  0.84557478  0.17315528     0.18000
H1215       H  0.33812964  0.97033235  0.08874798     0.17990
N1216       N  0.25783720  0.95771153  0.11099743    -0.88720
H1217       H  0.38553574  0.82970063  0.16613864     0.35370
H1218       H  0.41627368  0.87396853  0.17016465     0.40470
H1219       H  0.23602864  0.93942769  0.09183648     0.40090
H1220       H  0.26745041  0.98326826  0.09378454     0.34980
C1221       C  0.11279443  0.77597443  0.26400149    -0.26750
C1222       C  0.14569546  0.75890060  0.28738662    -0.14830
C1223       C  0.18675253  0.77651918  0.28592885     0.35800
C1224       C  0.19407233  0.81006291  0.26057299    -0.26200
C1225       C  0.16189527  0.82662629  0.23583725    -0.15440
C1226       C  0.12046646  0.80957787  0.23787855     0.36890
N1227       N  0.08603067  0.82504576  0.21374583    -0.89690
H1228       H  0.08097026  0.76322187  0.26627214     0.18000
H1229       H  0.22634276  0.81982653  0.25585993     0.17990
N1230       N  0.22210944  0.76012047  0.30812700    -0.88720
H1231       H  0.07522713  0.80084295  0.19213000     0.35370
H1232       H  0.09580401  0.85050453  0.19654773     0.40470
H1233       H  0.21391099  0.73326397  0.32398012     0.40090
H1234       H  0.23329244  0.78321421  0.33073652     0.34980
C1235       C  0.14162356  0.32728670  0.90232748    -0.26750
C1236       C  0.15081691  0.36098876  0.87734302    -0.14830
C1237       C  0.17271117  0.35540262  0.84050672     0.35800
C1238       C  0.18473984  0.31543477  0.82888735    -0.26200
C1239       C  0.17579117  0.28116109  0.85339844    -0.15440
C1240       C  0.15404574  0.28698549  0.89072273     0.36890
N1241       N  0.14410450  0.25307648  0.91730611    -0.89690
H1242       H  0.12510361  0.33244959  0.93095715     0.18000
H1243       H  0.20179928  0.31150680  0.80087724     0.17990
N1244       N  0.18330270  0.39059970  0.81562115    -0.88720
H1245       H  0.16111617  0.25918001  0.94573166     0.35370
H1246       H  0.15330037  0.22408736  0.90486195     0.40470
H1247       H  0.20447071  0.41087466  0.83349922     0.40090
H1248       H  0.19891178  0.38068960  0.78898170     0.34980
C1249       C  0.31321927  0.68119275  0.76271422    -0.26750
C1250       C  0.32837795  0.65121595  0.73381902    -0.14830
C1251       C  0.31031550  0.60964582  0.73203067     0.35800
C1252       C  0.27668326  0.60036367  0.75786112    -0.26200
C1253       C  0.26058410  0.63197978  0.78438136    -0.15440
C1254       C  0.27966066  0.67265644  0.78721335     0.36890
N1255       N  0.26491117  0.70679951  0.81326203    -0.89690
H1256       H  0.32416088  0.71341731  0.76298727     0.18000
H1257       H  0.26299630  0.56851369  0.75718648     0.17990
N1258       N  0.32418081  0.57707059  0.70377376    -0.88720
H1259       H  0.28801345  0.71459419  0.83680371     0.35370
H1260       H  0.23731169  0.69869695  0.82792043     0.40470
H1261       H  0.34903892  0.58828174  0.68654525     0.40090
H1262       H  0.29932698  0.56860769  0.68229717     0.34980
C1263       C  0.26152002  0.66335325  0.67304375    -0.26750
C1264       C  0.29522311  0.65682546  0.64793341    -0.14830
C1265       C  0.28795443  0.63785841  0.60710786     0.35800
C1266       C  0.24631199  0.62710385  0.59294255    -0.26200
C1267       C  0.21302411  0.63627817  0.61883361    -0.15440
C1268       C  0.22141096  0.65552628  0.65901420     0.36890
N1269       N  0.18937532  0.67147081  0.68481217    -0.89690
H1270       H  0.26491205  0.68097045  0.70233088     0.18000
H1271       H  0.23987116  0.61357560  0.56146760     0.17990
N1272       N  0.32137563  0.63090775  0.57915914    -0.88720
H1273       H  0.19416819  0.70414561  0.68945483     0.35370
H1274       H  0.19200857  0.65809108  0.71392130     0.40470
H1275       H  0.35046337  0.63984145  0.59377600     0.40090
H1276       H  0.32183380  0.59841663  0.57227835     0.34980
C1277       C  0.46454800  0.76111598  0.73844178    -0.26750
C1278       C  0.42210855  0.76619458  0.72777621    -0.14830
C1279       C  0.40011177  0.79798625  0.74961156     0.35800
C1280       C  0.42237829  0.82762032  0.77551170    -0.26200
C1281       C  0.46386711  0.82148257  0.78722659    -0.15440
C1282       C  0.48464413  0.78658269  0.77088472     0.36890
N1283       N  0.52487633  0.77632828  0.78822916    -0.89690
H1284       H  0.48051108  0.73495003  0.72423767     0.18000
H1285       H  0.40581649  0.85292522  0.79068674     0.17990
N1286       N  0.35527588  0.79750175  0.75172456    -0.88720
H1287       H  0.53582902  0.74977771  0.77218526     0.35370
H1288       H  0.52089514  0.76794609  0.81903873     0.40470
H1289       H  0.34176725  0.77012621  0.73707259     0.40090
H1290       H  0.34758095  0.79598473  0.78312152     0.34980
C1291       C  0.38089748  0.85940579  0.62867046    -0.26750
C1292       C  0.41913111  0.86010937  0.60939235    -0.14830
C1293       C  0.44329342  0.82406344  0.60806099     0.35800
C1294       C  0.42762050  0.78760317  0.62606797    -0.26200
C1295       C  0.38923601  0.78699083  0.64634431    -0.15440
C1296       C  0.36632303  0.82458764  0.64855196     0.36890
N1297       N  0.32890330  0.83028871  0.67090243    -0.89690
H1298       H  0.36301449  0.88772898  0.63071370     0.18000
H1299       H  0.44581630  0.75955955  0.62471699     0.17990
N1300       N  0.48341905  0.82342799  0.58925564    -0.88720
H1301       H  0.33503593  0.85444648  0.69402860     0.35370
H1302       H  0.32099885  0.80387493  0.68640594     0.40470
H1303       H  0.49113662  0.85228893  0.57662444     0.40090
H1304       H  0.48092172  0.80098893  0.56413158     0.34980
C1305       C  0.40152147  0.70389277  0.79272714    -0.26750
C1306       C  0.41092632  0.68072278  0.75611361    -0.14830
C1307       C  0.42801267  0.64054220  0.75952310     0.35800
C1308       C  0.43296505  0.62404884  0.79918116    -0.26200
C1309       C  0.41984099  0.64642219  0.83476887    -0.15440
C1310       C  0.40359424  0.68670750  0.83134157     0.36890
N1311       N  0.38713668  0.71054098  0.86602822    -0.89690
H1312       H  0.38697701  0.73359380  0.79149197     0.18000
H1313       H  0.44686848  0.59377003  0.80222205     0.17990
N1314       N  0.44047183  0.61589859  0.72360500    -0.88720
H1315       H  0.40820941  0.73604624  0.87407304     0.35370
H1316       H  0.38359936  0.69293894  0.89241644     0.40470
H1317       H  0.43679283  0.63208515  0.69617405     0.40090
H1318       H  0.42071735  0.58872925  0.72034196     0.34980
C1319       C  0.28223275  0.79091138  0.57568236    -0.26750
C1320       C  0.25130847  0.80339655  0.60331519    -0.14830
C1321       C  0.24601234  0.78258720  0.64045485     0.35800
C1322       C  0.27401138  0.75223556  0.65097513    -0.26200
C1323       C  0.30745444  0.74180024  0.62564814    -0.15440
C1324       C  0.31029668  0.75984729  0.58630816     0.36890
N1325       N  0.34211260  0.74893180  0.55768056    -0.89690
H1326       H  0.28550438  0.80644834  0.54652040     0.18000
H1327       H  0.27452632  0.74322057  0.68297840     0.17990
N1328       N  0.21551283  0.79591727  0.66979054    -0.88720
H1329       H  0.36185729  0.77570357  0.55502231     0.35370
H1330       H  0.36055740  0.72537707  0.56921646     0.40470
H1331       H  0.22413828  0.82680200  0.68062329     0.40090
H1332       H  0.21614074  0.77766855  0.69608447     0.34980
C1333       C  0.14516053  0.92805050  0.25973025    -0.26750
C1334       C  0.18540124  0.91155028  0.25845612    -0.14830
C1335       C  0.20705338  0.90313378  0.29634634     0.35800
C1336       C  0.18753416  0.90917125  0.33359880    -0.26200
C1337       C  0.14745747  0.92472182  0.33482987    -0.15440
C1338       C  0.12598715  0.93520629  0.29804724     0.36890
N1339       N  0.08498064  0.95194607  0.29973706    -0.89690
H1340       H  0.12813020  0.93354267  0.23066285     0.18000
H1341       H  0.20409762  0.90150363  0.36235726     0.17990
N1342       N  0.24798667  0.88661626  0.29795114    -0.88720
H1343       H  0.07344243  0.95760870  0.26958126     0.35370
H1344       H  0.08813350  0.98124191  0.31623164     0.40470
H1345       H  0.26749172  0.90820974  0.31621061     0.40090
H1346       H  0.24693863  0.85899905  0.31438216     0.34980
C1347       C  0.79481020  0.49077900  0.76631627    -0.26750
C1348       C  0.82387649  0.46552002  0.78609376    -0.14830
C1349       C  0.82643545  0.42271236  0.77326449     0.35800
C1350       C  0.79912761  0.40602173  0.74163902    -0.26200
C1351       C  0.76936138  0.43045264  0.72187236    -0.15440
C1352       C  0.76710013  0.47352135  0.73418478     0.36890
N1353       N  0.73695731  0.50001777  0.71558641    -0.89690
H1354       H  0.79342558  0.52380537  0.77620437     0.18000
H1355       H  0.79774918  0.37219176  0.73601994     0.17990
N1356       N  0.85434723  0.39449379  0.79302903    -0.88720
H1357       H  0.71644286  0.50893146  0.73878285     0.35370
H1358       H  0.71887964  0.48356315  0.69166803     0.40470
H1359       H  0.87200864  0.40891083  0.81831957     0.40090
H1360       H  0.87554656  0.38470563  0.77082102     0.34980
C1361       C  0.83644709  0.85259991  0.40201668    -0.26750
C1362       C  0.86771819  0.86542085  0.37488925    -0.14830
C1363       C  0.87265703  0.84415923  0.33643532     0.35800
C1364       C  0.84556467  0.80983362  0.32545257    -0.26200
C1365       C  0.81484051  0.79635386  0.35294496    -0.15440
C1366       C  0.80988449  0.81796523  0.39113137     0.36890
N1367       N  0.77739857  0.80536573  0.41810691    -0.89690
H1368       H  0.83377151  0.86866008  0.43245724     0.18000
H1369       H  0.84785649  0.79385066  0.29514116     0.17990
N1370       N  0.90530523  0.85712992  0.30950202    -0.88720
H1371       H  0.75810042  0.83082522  0.42274934     0.35370
H1372       H  0.79144267  0.79899778  0.44705873     0.40470
H1373       H  0.89893655  0.88737645  0.30021829     0.40090
H1374       H  0.90457642  0.83750983  0.28221501     0.34980
C1375       C  0.30145173  0.91338220  0.23749862    -0.26750
C1376       C  0.26633557  0.93396177  0.22258418    -0.14830
C1377       C  0.26048383  0.97584634  0.23667452     0.35800
C1378       C  0.28970336  0.99614791  0.26605945    -0.26200
C1379       C  0.32452171  0.97469826  0.28076957    -0.15440
C1380       C  0.33068448  0.93328832  0.26571117     0.36890
N1381       N  0.36494449  0.91011849  0.28162875    -0.89690
H1382       H  0.30367233  0.87988891  0.23123734     0.18000
H1383       H  0.28487271  0.02803336  0.27793768     0.17990
N1384       N  0.22426241  0.99687677  0.22243841    -0.88720
H1385       H  0.38229741  0.89995455  0.25627451     0.35370
H1386       H  0.35258983  0.88341846  0.29547610     0.40470
H1387       H  0.20786087  0.00645229  0.24865624     0.40090
H1388       H  0.23442343  0.02375829  0.20757942     0.34980
C1389       C  0.89512564  0.33491708  0.30642892    -0.26750
C1390       C  0.89091246  0.30313052  0.27500560    -0.14830
C1391       C  0.92610742  0.28785532  0.25482240     0.35800
C1392       C  0.96612752  0.30289920  0.26978575    -0.26200
C1393       C  0.97000355  0.33268702  0.30352822    -0.15440
C1394       C  0.93412119  0.34969011  0.32112268     0.36890
N1395       N  0.93717117  0.38175391  0.35439280    -0.89690
H1396       H  0.86767875  0.34744738  0.32072212     0.18000
H1397       H  0.99398180  0.29145104  0.25556609     0.17990
N1398       N  0.92122619  0.25894508  0.21882068    -0.88720
H1399       H  0.92179977  0.37033583  0.38007201     0.35370
H1400       H  0.92161249  0.40800225  0.34439162     0.40470
H1401       H  0.90882448  0.23030564  0.22823992     0.40090
H1402       H  0.95045936  0.25278059  0.20682293     0.34980
C1403       C  0.31338946  0.32252980  0.87018081    -0.26750
C1404       C  0.32177670  0.32483066  0.91309733    -0.14830
C1405       C  0.29802637  0.29982927  0.93928639     0.35800
C1406       C  0.26693553  0.27119538  0.92192339    -0.26200
C1407       C  0.25993506  0.26685208  0.87871580    -0.15440
C1408       C  0.28288469  0.29386874  0.85233378     0.36890
N1409       N  0.28005682  0.28992050  0.80745794    -0.89690
H1410       H  0.33175756  0.34212285  0.85022392     0.18000
H1411       H  0.24951128  0.25079150  0.94186105     0.17990
N1412       N  0.30675190  0.30270395  0.98340003    -0.88720
H1413       H  0.27232855  0.31906032  0.79622539     0.35370
H1414       H  0.25630135  0.26825319  0.79725012     0.40470
H1415       H  0.33652150  0.29079016  0.98790361     0.40090
H1416       H  0.28567368  0.28304316  0.99843293     0.34980
C1417       C  0.80370248  0.79547542  0.62553864    -0.26750
C1418       C  0.79915648  0.79948817  0.66883855    -0.14830
C1419       C  0.82208464  0.83201141  0.69327615     0.35800
C1420       C  0.84868355  0.85958713  0.67378951    -0.26200
C1421       C  0.85420413  0.85465405  0.63105653    -0.15440
C1422       C  0.83150700  0.82275915  0.60637876     0.36890
N1423       N  0.83616293  0.81771253  0.56209227    -0.89690
H1424       H  0.78620543  0.77071470  0.60691673     0.18000
H1425       H  0.86667323  0.88402000  0.69248681     0.17990
N1426       N  0.82217209  0.83596890  0.73813225    -0.88720
H1427       H  0.86753773  0.81194474  0.55669820     0.35370
H1428       H  0.82893437  0.84602158  0.54871920     0.40470
H1429       H  0.80514626  0.81118637  0.75010071     0.40090
H1430       H  0.80836662  0.86414478  0.74683015     0.34980
C1431       C  0.82869274  0.72261770  0.79206778    -0.26750
C1432       C  0.79921960  0.69582005  0.76902617    -0.14830
C1433       C  0.79825409  0.65199248  0.77346735     0.35800
C1434       C  0.82744146  0.63599638  0.80128649    -0.26200
C1435       C  0.85678620  0.66314459  0.82415057    -0.15440
C1436       C  0.85754655  0.70690167  0.81983023     0.36890
N1437       N  0.88578524  0.73623982  0.84390696    -0.89690
H1438       H  0.82848489  0.75641284  0.78925761     0.18000
H1439       H  0.82735621  0.60226826  0.80516455     0.17990
N1440       N  0.76894977  0.62322477  0.75021437    -0.88720
H1441       H  0.90547902  0.75080604  0.82307676     0.35370
H1442       H  0.90512217  0.72132471  0.86507447     0.40470
H1443       H  0.74939911  0.63896509  0.72988570     0.40090
H1444       H  0.74961786  0.60918279  0.77171077     0.34980
C1445       C  0.64468980  0.79369835  0.74849244    -0.26750
C1446       C  0.68690417  0.79061054  0.76130704    -0.14830
C1447       C  0.70477262  0.81724655  0.79448138     0.35800
C1448       C  0.67860884  0.83998753  0.81924820    -0.26200
C1449       C  0.63641209  0.84252545  0.80741627    -0.15440
C1450       C  0.61984795  0.82225862  0.76971204     0.36890
N1451       N  0.57960089  0.83123532  0.75144498    -0.89690
H1452       H  0.63211622  0.77615830  0.72052294     0.18000
H1453       H  0.69186051  0.85898100  0.84611610     0.17990
N1454       N  0.74930278  0.82597922  0.79922097    -0.88720
H1455       H  0.58465321  0.84453913  0.72272630     0.35370
H1456       H  0.56485565  0.85381109  0.76978573     0.40470
H1457       H  0.76446655  0.79844083  0.80422104     0.40090
H1458       H  0.75703952  0.84668233  0.82508823     0.34980
C1459       C  0.67130316  0.83929780  0.62307225    -0.26750
C1460       C  0.67678555  0.88018234  0.64090637    -0.14830
C1461       C  0.70070317  0.88922128  0.67849624     0.35800
C1462       C  0.71845976  0.85632514  0.69831534    -0.26200
C1463       C  0.71272192  0.81536010  0.68092792    -0.15440
C1464       C  0.68929600  0.80622640  0.64321319     0.36890
N1465       N  0.68443081  0.76364650  0.62571135    -0.89690
H1466       H  0.65307573  0.83341699  0.59389435     0.18000
H1467       H  0.73696638  0.86259551  0.72711426     0.17990
N1468       N  0.70663093  0.93177612  0.69614901    -0.88720
H1469       H  0.66654789  0.76258866  0.59754186     0.35370
H1470       H  0.66736798  0.74602406  0.64652520     0.40470
H1471       H  0.72440070  0.94899214  0.67557630     0.40090
H1472       H  0.72418807  0.93249995  0.72450697     0.34980
C1473       C  0.89496673  0.70743265  0.67203746    -0.26750
C1474       C  0.88402629  0.67322815  0.64399960    -0.14830
C1475       C  0.84233688  0.65848287  0.63682291     0.35800
C1476       C  0.81136222  0.67950357  0.65782874    -0.26200
C1477       C  0.82236106  0.71397867  0.68572050    -0.15440
C1478       C  0.86437886  0.72797707  0.69324050     0.36890
N1479       N  0.87627182  0.76250339  0.72232256    -0.89690
H1480       H  0.92761018  0.71791910  0.67767763     0.18000
H1481       H  0.77867206  0.66913366  0.65266826     0.17990
N1482       N  0.83190523  0.62293736  0.60820748    -0.88720
H1483       H  0.89704585  0.75158147  0.74498936     0.35370
H1484       H  0.89293881  0.78520483  0.70624999     0.40470
H1485       H  0.84523264  0.59654147  0.62065430     0.40090
H1486       H  0.79943947  0.61662936  0.60631401     0.34980
C1487       C  0.70202972  0.69225185  0.85956880    -0.26750
C1488       C  0.66749952  0.66567876  0.84700263    -0.14830
C1489       C  0.65381110  0.66055225  0.80490006     0.35800
C1490       C  0.67597953  0.68268580  0.77542121    -0.26200
C1491       C  0.71131529  0.70888667  0.78805454    -0.15440
C1492       C  0.72430080  0.71366732  0.83070988     0.36890
N1493       N  0.75967010  0.74002902  0.84556634    -0.89690
H1494       H  0.71192291  0.69627809  0.89245934     0.18000
H1495       H  0.66607074  0.67936139  0.74257076     0.17990
N1496       N  0.61781484  0.63343125  0.79259788    -0.88720
H1497       H  0.78029711  0.72157494  0.86212109     0.35370
H1498       H  0.74920793  0.76290644  0.86689295     0.40470
H1499       H  0.62516374  0.60264952  0.79926603     0.40090
H1500       H  0.61192910  0.63347292  0.76020951     0.34980
loop_ 
_geom_bond_atom_site_label_1 
_geom_bond_atom_site_label_2 
_geom_bond_distance 
_geom_bond_site_symmetry_2 
_ccdc_geom_bond_type 
C1            C2   1.399       .  A
C1            C6   1.399       .  A
C1         C1488   1.443       .  S
C2            C3   1.386       .  A
C2            H7   1.085       .  S
C3            C4   1.429       .  A
C3          C378   1.497       .  S
C4            C5   1.427       .  A
C4            H8   1.078       .  S
C5            C6   1.393       .  A
C5          C421   1.504       .  S
C6            H9   1.085       .  S
C10          C11   1.393       .  A
C10          C15   1.393       .  A
C10        C1474   1.435       .  S
C11          C12   1.387       .  A
C11          H16   1.086       .  S
C12          C13   1.428   1_655  A
C12         C142   1.496   1_655  S
C13          C14   1.429   1_455  A
C13          H17   1.078       .  S
C14          C15   1.387       .  A
C14         C185   1.494   1_655  S
C15          H18   1.086       .  S
C19          C20   1.392       .  A
C19          C24   1.393       .  A
C19        C1460   1.433       .  S
C20          C21   1.384       .  A
C20          H25   1.086       .  S
C21          C22   1.423       .  A
C21         C596   1.486   1_565  S
C22          C23   1.425       .  A
C22          H26   1.079   1_565  S
C23          C24   1.387       .  A
C23         C639   1.488   1_565  S
C24          H27   1.085       .  S
C28          C29   1.395       .  A
C28          C33   1.397       .  A
C28        C1491   1.467       .  S
C29          C30   1.393       .  A
C29        C1432   1.456       .  S
C30          C31   1.384       .  A
C30        C1477   1.449       .  S
C31          C32   1.387       .  A
C31        C1418   1.472       .  S
C32          C33   1.395       .  A
C32        C1463   1.445       .  S
C33        C1446   1.463       .  S
C34          C35   1.405       .  A
C34          C39   1.435       .  A
C34         C521   1.504       .  S
C35          C36   1.386       .  A
C35          H40   1.084       .  S
C36          C37   1.379       .  A
C36        C1404   1.459       .  S
C37          C38   1.400       .  A
C37          H41   1.085       .  S
C38          C39   1.433       .  A
C38         C293   1.500       .  S
C39          H42   1.080       .  S
C43          C44   1.372       .  A
C43          C48   1.376       .  A
C43        C1393   1.449   1_455  S
C44          C45   1.402       .  A
C44          H49   1.084       .  S
C45          C46   1.433       .  A
C45         C303   1.495       .  S
C46          C47   1.434       .  A
C46          H50   1.082       .  S
C47          C48   1.404       .  A
C47         C749   1.494       .  S
C48          H51   1.084       .  S
C52          C53   1.380       .  A
C52          C57   1.386       .  A
C52        C1379   1.465       .  S
C53          C54   1.401   1_565  A
C53          H58   1.085       .  S
C54          C55   1.436       .  A
C54         C511   1.508       .  S
C55          C56   1.438       .  A
C55          H59   1.082       .  S
C56          C57   1.410   1_545  A
C56         C701   1.511       .  S
C57          H60   1.084       .  S
C61          C62   1.385       .  A
C61          C66   1.390       .  A
C61        C1362   1.433       .  S
C62          C63   1.384       .  A
C62          H67   1.086       .  S
C63          C64   1.437       .  A
C63         C640   1.502       .  S
C64          C65   1.437       .  A
C64          H68   1.065       .  S
C65          C66   1.385       .  A
C65         C143   1.506       .  S
C66          H69   1.086       .  S
C70          C71   1.398       .  A
C70          C75   1.446       .  A
C70         C642   1.518       .  S
C71          C72   1.377       .  A
C71          H76   1.085       .  S
C72          C73   1.380       .  A
C72        C1421   1.449       .  S
C73          C74   1.400       .  A
C73          H77   1.085       .  S
C74          C75   1.447       .  A
C74         C140   1.518       .  S
C75          H78   1.082       .  S
C79          C80   1.381       .  A
C79          C84   1.377       .  A
C79        C1348   1.454       .  S
C80          C81   1.404       .  A
C80          H85   1.084       .  S
C81          C82   1.446       .  A
C81         C379   1.515       .  S
C82          C83   1.443       .  A
C82          H86   1.082       .  S
C83          C84   1.401       .  A
C83         C186   1.516       .  S
C84          H87   1.084       .  S
C88          C89   1.393       .  A
C88          C93   1.447       .  A
C88         C376   1.510       .  S
C89          C90   1.374       .  A
C89          H94   1.085       .  S
C90          C91   1.378       .  A
C90        C1435   1.439       .  S
C91          C92   1.395       .  A
C91          H95   1.085       .  S
C92          C93   1.446       .  A
C92         C188   1.513       .  S
C93          H96   1.082       .  S
C97          C98   1.420       .  A
C97         C102   1.402       .  A
C97         C124   1.494       .  S
C98          C99   1.409       .  A
C98         H103   1.079       .  S
C99         C100   1.381       .  A
C99         C703   1.475       .  S
C100        C101   1.398       .  A
C100        H104   1.086       .  S
C101        C102   1.407       .  A
C101       C1337   1.450       .  S
C102        H105   1.084       .  S
C106        C107   1.390       .  A
C106        C111   1.430       .  A
C106        C126   1.496       .  S
C107        C108   1.395       .  A
C107        H112   1.084       .  S
C108        C109   1.400       .  A
C108       C1320   1.467       .  S
C109        C110   1.401       .  A
C109        H113   1.085       .  S
C110        C111   1.432       .  A
C110        C719   1.497       .  S
C111        H114   1.083       .  S
O115        C123   1.256       .  A
O115       Co135   2.009       .  S
O116        C124   1.288       .  A
O116       Co136   2.073       .  S
O117        C125   1.274       .  A
O117       Co137   1.989       .  S
O118        C126   1.261       .  A
O118       Co138   1.950       .  S
O119        C125   1.272       .  A
O119       Co136   2.014       .  S
O120        C126   1.288       .  A
O120       Co135   2.101       .  S
O121        C124   1.279       .  A
O121       Co138   1.994       .  S
O122        C123   1.262       .  A
O122       Co137   1.966       .  S
C123        C170   1.498       .  S
C125        C246   1.494       .  S
O127        C140   1.300       .  A
O127       Co135   2.094   1_655  S
O128        C141   1.285   1_655  A
O128       Co136   2.036   1_655  S
O129        C142   1.272       .  A
O129       Co137   2.031       .  S
O130        C143   1.248   1_455  A
O130       Co138   2.000       .  S
O131        C143   1.277       .  A
O131       Co136   2.040   1_655  S
O132        C142   1.283   1_655  A
O132       Co135   2.000   1_655  S
O133        C140   1.269   1_455  A
O133       Co138   1.964       .  S
O134        C141   1.258       .  A
O134       Co137   1.991       .  S
Co135       O139   2.170       .  S
Co136       O139   2.090       .  S
Co137       O139   2.129       .  S
Co138       O139   2.016       .  S
C141        C391   1.500   1_455  S
C144        C145   1.403       .  A
C144        C149   1.427       .  A
C144        C274   1.504       .  S
C145        C146   1.406       .  A
C145        H150   1.084       .  S
C146        C147   1.396       .  A
C146       C1309   1.453       .  S
C147        C148   1.383       .  A
C147        H151   1.086       .  S
C148        C149   1.417       .  A
C148        C423   1.489       .  S
C149        H152   1.078       .  S
C153        C154   1.392       .  A
C153        C158   1.427       .  A
C153        C720   1.503       .  S
C154        C155   1.404       .  A
C154        H159   1.085       .  S
C155        C156   1.403       .  A
C155       C1292   1.455       .  S
C156        C157   1.395       .  A
C156        H160   1.085       .  S
C157        C158   1.422       .  A
C157        C595   1.501       .  S
C158        H161   1.079   1_565  S
C162        C163   1.422       .  A
C162        C167   1.411       .  A
C162       C1323   1.496       .  S
C163        C164   1.421       .  A
C163       C1264   1.476       .  S
C164        C165   1.407       .  A
C164       C1250   1.504       .  S
C165        C166   1.414       .  A
C165       C1306   1.492       .  S
C166        C167   1.411       .  A
C166       C1278   1.476       .  S
C167       C1295   1.493       .  S
C168        C169   1.399       .  A
C168        C173   1.398       .  A
C168       C1267   1.456       .  S
C169        C170   1.399       .  A
C169        H174   1.084       .  S
C170        C171   1.428       .  A
C171        C172   1.428       .  A
C171        H175   1.083       .  S
C172        C173   1.399       .  A
C172        C204   1.501       .  S
C173        H176   1.085       .  S
O177        C185   1.285   1_655  A
O177       Co197   2.001   1_655  S
O178        C186   1.259       .  A
O178       Co198   1.982   1_655  S
O179        C187   1.254       .  A
O179       Co199   1.987       .  S
O180        C188   1.265   1_455  A
O180       Co200   1.949       .  S
O181        C187   1.270   1_655  A
O181       Co198   2.018   1_655  S
O182        C188   1.302       .  A
O182       Co197   2.103   1_655  S
O183        C186   1.253   1_455  A
O183       Co200   2.051       .  S
O184        C185   1.273       .  A
O184       Co199   2.028       .  S
C187        C609   1.491   1_455  S
O189        C202   1.289       .  A
O189       Co197   2.103       .  S
O190        C203   1.273       .  A
O190       Co198   2.014       .  S
O191        C204   1.264       .  A
O191       Co199   1.958       .  S
O192        C205   1.268       .  A
O192       Co200   1.968       .  S
O193        C205   1.291       .  A
O193       Co198   2.086       .  S
O194        C204   1.252       .  A
O194       Co197   2.004       .  S
O195        C202   1.264       .  A
O195       Co200   1.963       .  S
O196        C203   1.276       .  A
O196       Co199   1.990       .  S
Co197       O201   2.166       .  S
Co198       O201   2.064       .  S
Co199       O201   2.134       .  S
Co200       O201   2.045       .  S
C202        C217   1.505       .  S
C203        C760   1.496       .  S
C205        C206   1.494       .  S
C206        C207   1.429       .  A
C206        C211   1.387       .  A
C207        C208   1.423       .  A
C207        H212   1.079       .  S
C208        C209   1.390       .  A
C208        C292   1.495       .  S
C209        C210   1.396       .  A
C209        H213   1.085       .  S
C210        C211   1.395       .  A
C210       C1236   1.440       .  S
C211        H214   1.085       .  S
C215        C216   1.403       .  A
C215        C220   1.389       .  A
C215       C1253   1.458       .  S
C216        C217   1.404       .  A
C216        H221   1.082       .  S
C217        C218   1.432       .  A
C218        C219   1.429       .  A
C218        H222   1.082       .  S
C219        C220   1.384       .  A
C219        C276   1.485       .  S
C220        H223   1.087       .  S
C224        C225   1.376       .  A
C224        C229   1.376       .  A
C224       C1281   1.448       .  S
C225        C226   1.398       .  A
C225        H230   1.085       .  S
C226        C227   1.441       .  A
C226        C597   1.512       .  S
C227        C228   1.444       .  A
C227        H231   1.082       .  S
C228        C229   1.400       .  A
C228        C422   1.508       .  S
C229        H232   1.084       .  S
C233        C234   1.401       .  A
C233        C238   1.445       .  A
C233        C594   1.514       .  S
C234        C235   1.375       .  A
C234        H239   1.084       .  S
C235        C236   1.379       .  A
C235       C1449   1.446       .  S
C236        C237   1.399       .  A
C236        H240   1.084       .  S
C237        C238   1.445       .  A
C237        C424   1.515       .  S
C238        H241   1.082       .  S
C242        C243   1.406       .  A
C242        C247   1.434       .  A
C242        C320   1.514       .  S
C243        C244   1.406       .  A
C243        H248   1.084       .  S
C244        C245   1.394       .  A
C244       C1222   1.467       .  S
C245        C246   1.389       .  A
C245        H249   1.086       .  S
C246        C247   1.431       .  A
C247        H250   1.081       .  S
C251        C252   1.418       .  A
C251        C256   1.411       .  A
C251       C1376   1.485       .  S
C252        C253   1.408       .  A
C252       C1208   1.475       .  S
C253        C254   1.408       .  A
C253       C1194   1.503       .  S
C254        C255   1.414       .  A
C254       C1183   1.468       .  S
C255        C256   1.407       .  A
C255       C1225   1.499       .  S
C256       C1334   1.480       .  S
C257        C258   1.404       .  A
C257        C262   1.434       .  A
C257        C277   1.514       .  S
C258        C259   1.403       .  A
C258        H263   1.084       .  S
C259        C260   1.400       .  A
C259       C1197   1.475       .  S
C260        C261   1.399       .  A
C260        H264   1.085       .  S
C261        C262   1.434       .  A
C261        C439   1.504       .  S
C262        H265   1.081       .  S
O266        C274   1.276       .  A
O266       Co286   1.986   1_556  S
O267        C275   1.257       .  A
O267       Co287   1.959       .  S
O268        C276   1.271       .  A
O268       Co288   2.006       .  S
O269        C277   1.288       .  A
O269       Co289   2.099       .  S
O270        C276   1.270       .  A
O270       Co287   1.977   1_556  S
O271        C277   1.267       .  A
O271       Co286   1.976       .  S
O272        C275   1.255       .  A
O272       Co289   2.006       .  S
O273        C274   1.291       .  A
O273       Co288   2.086       .  S
C275        C789   1.490       .  S
O278        C291   1.270       .  A
O278       Co286   1.960       .  S
O279        C292   1.257       .  A
O279       Co287   2.002   1_556  S
O280        C293   1.255       .  A
O280       Co288   1.980       .  S
O281        C294   1.274       .  A
O281       Co289   1.981       .  S
O282        C294   1.273       .  A
O282       Co287   2.032       .  S
O283        C293   1.251       .  A
O283       Co286   2.037   1_556  S
O284        C291   1.293       .  A
O284       Co289   2.092       .  S
O285        C292   1.270       .  A
O285       Co288   2.005       .  S
Co286       O290   2.046       .  S
Co287       O290   2.139       .  S
Co288       O290   2.057   1_556  S
Co289       O290   2.160       .  S
C291        C800   1.519       .  S
C294        C328   1.487       .  S
O295        C303   1.248       .  A
O295       Co315   2.030       .  S
O296        C304   1.267       .  A
O296       Co316   2.015       .  S
O297        C305   1.280       .  A
O297       Co317   2.029       .  S
O298        C306   1.296       .  A
O298       Co318   2.099       .  S
O299        C305   1.251       .  A
O299       Co316   1.989   1_655  S
O300        C306   1.269       .  A
O300       Co315   1.977       .  S
O301        C304   1.277       .  A
O301       Co318   1.990       .  S
O302        C303   1.253       .  A
O302       Co317   1.961   1_455  S
C304        C326   1.482       .  S
C305        C335   1.510       .  S
C306        C816   1.531       .  S
O307        C320   1.265       .  A
O307       Co315   1.968       .  S
O308        C321   1.276       .  A
O308       Co316   1.992   1_655  S
O309        C322   1.296       .  A
O309       Co317   2.109       .  S
O310        C323   1.253       .  A
O310       Co318   1.993       .  S
O311        C323   1.262       .  A
O311       Co316   1.953       .  S
O312        C322   1.274   1_455  A
O312       Co315   1.988       .  S
O313        C320   1.290       .  A
O313       Co318   2.112       .  S
O314        C321   1.266       .  A
O314       Co317   1.962       .  S
Co315       O319   2.061       .  S
Co316       O319   2.167       .  S
Co317       O319   2.055   1_655  S
Co318       O319   2.168       .  S
C321        C344   1.505       .  S
C322        C389   1.515       .  S
C323        C791   1.488       .  S
C324        C325   1.390       .  A
C324        C329   1.392       .  A
C324       C1166   1.440       .  S
C325        C326   1.385       .  A
C325        H330   1.086       .  S
C326        C327   1.422       .  A
C327        C328   1.421       .  A
C327        H331   1.080       .  S
C328        C329   1.393       .  A
C329        H332   1.085       .  S
C333        C334   1.442       .  A
C333        C338   1.386       .  A
C333        C360   1.505       .  S
C334        C335   1.439       .  A
C334        H339   1.082       .  S
C335        C336   1.385       .  A
C336        C337   1.392       .  A
C336        H340   1.086       .  S
C337        C338   1.388       .  A
C337       C1152   1.433       .  S
C338        H341   1.085       .  S
C342        C343   1.383       .  A
C342        C347   1.396       .  A
C342       C1138   1.443       .  S
C343        C344   1.399       .  A
C343        H348   1.087       .  S
C344        C345   1.431       .  A
C345        C346   1.440       .  A
C345        H349   1.082       .  S
C346        C347   1.399       .  A
C346        C362   1.491       .  S
C347        H350   1.084       .  S
O351        C359   1.249       .  A
O351       Co371   2.009       .  S
O352        C360   1.293       .  A
O352       Co372   2.085   1_554  S
O353        C361   1.263       .  A
O353       Co373   1.961       .  S
O354        C362   1.259       .  A
O354       Co374   1.935       .  S
O355        C361   1.276       .  A
O355       Co372   2.061   1_554  S
O356        C362   1.291       .  A
O356       Co371   2.112       .  S
O357        C360   1.273       .  A
O357       Co374   1.996       .  S
O358        C359   1.259       .  A
O358       Co373   1.951       .  S
C359        C406   1.500       .  S
C361        C462   1.506       .  S
O363        C376   1.303       .  A
O363       Co371   2.104   1_556  S
O364        C377   1.271       .  A
O364       Co372   2.004       .  S
O365        C378   1.270       .  A
O365       Co373   2.015   1_556  S
O366        C379   1.249       .  A
O366       Co374   2.017   1_556  S
O367        C379   1.264       .  A
O367       Co372   2.005       .  S
O368        C378   1.290       .  A
O368       Co371   2.019   1_556  S
O369        C376   1.261       .  A
O369       Co374   1.946   1_556  S
O370        C377   1.260   1_554  A
O370       Co373   2.018       .  S
Co371       O375   2.172       .  S
Co372       O375   2.087   1_556  S
Co373       O375   2.121       .  S
Co374       O375   2.050       .  S
C377        C600   1.496       .  S
C380        C381   1.382       .  A
C380        C385   1.446       .  A
C380        C492   1.501       .  S
C381        C382   1.384       .  A
C381        H386   1.085       .  S
C382        C383   1.389       .  A
C382       C1124   1.429       .  S
C383        C384   1.387       .  A
C383        H387   1.085       .  S
C384        C385   1.436       .  A
C384        C641   1.513       .  S
C385        H388   1.080   1_565  S
C389        C390   1.433       .  A
C389        C394   1.400       .  A
C390        C391   1.426       .  A
C390        H395   1.076   1_655  S
C391        C392   1.385       .  A
C392        C393   1.399       .  A
C392        H396   1.086       .  S
C393        C394   1.409       .  A
C393       C1110   1.449       .  S
C394        H397   1.084       .  S
C398        C399   1.381       .  A
C398        C403   1.367       .  A
C398       C1127   1.446       .  S
C399        C400   1.403       .  A
C399       C1365   1.444       .  S
C400        C401   1.407       .  A
C400       C1113   1.473       .  S
C401        C402   1.400       .  A
C401       C1141   1.466       .  S
C402        C403   1.385       .  A
C402       C1096   1.445       .  S
C403       C1085   1.465       .  S
C404        C405   1.396       .  A
C404        C409   1.402       .  A
C404       C1099   1.464       .  S
C405        C406   1.401       .  A
C405        H410   1.084       .  S
C406        C407   1.428       .  A
C407        C408   1.430       .  A
C407        H411   1.083       .  S
C408        C409   1.402       .  A
C408        C440   1.500       .  S
C409        H412   1.084       .  S
O413        C421   1.281       .  A
O413       Co433   2.005       .  S
O414        C422   1.261       .  A
O414       Co434   1.988       .  S
O415        C423   1.256   1_554  A
O415       Co435   1.995       .  S
O416        C424   1.269       .  A
O416       Co436   1.961   1_556  S
O417        C423   1.272       .  A
O417       Co434   2.006       .  S
O418        C424   1.302       .  A
O418       Co433   2.090       .  S
O419        C422   1.250       .  A
O419       Co436   2.042   1_556  S
O420        C421   1.274   1_554  A
O420       Co435   2.039       .  S
O425        C438   1.289       .  A
O425       Co433   2.089   1_554  S
O426        C439   1.271       .  A
O426       Co434   2.013   1_554  S
O427        C440   1.264       .  A
O427       Co435   1.972       .  S
O428        C441   1.272       .  A
O428       Co436   1.973       .  S
O429        C441   1.293       .  A
O429       Co434   2.088   1_554  S
O430        C440   1.260       .  A
O430       Co433   2.014   1_554  S
O431        C438   1.263       .  A
O431       Co436   1.963       .  S
O432        C439   1.277       .  A
O432       Co435   1.998       .  S
Co433       O437   2.165   1_556  S
Co434       O437   2.065   1_556  S
Co435       O437   2.143       .  S
Co436       O437   2.032       .  S
C438        C451   1.501       .  S
C441        C442   1.494       .  S
C442        C443   1.424       .  A
C442        C447   1.386       .  A
C443        C444   1.419       .  A
C443        H448   1.070       .  S
C444        C445   1.394       .  A
C444        C510   1.503       .  S
C445        C446   1.399       .  A
C445        H449   1.085       .  S
C446        C447   1.397       .  A
C446       C1211   1.441       .  S
C447        H450   1.085       .  S
C451        C452   1.428       .  A
C451        C456   1.387       .  A
C452        C453   1.425       .  A
C452        H457   1.060       .  S
C453        C454   1.386       .  A
C453        C494   1.494       .  S
C454        C455   1.398       .  A
C454        H458   1.085       .  S
C455        C456   1.389       .  A
C455       C1082   1.437       .  S
C456        H459   1.085       .  S
C460        C461   1.435       .  A
C460        C465   1.396       .  A
C460        C538   1.503       .  S
C461        C462   1.431       .  A
C461        H466   1.078       .  S
C462        C463   1.397       .  A
C463        C464   1.400       .  A
C463        H467   1.085       .  S
C464        C465   1.396       .  A
C464       C1068   1.451       .  S
C465        H468   1.085       .  S
C469        C470   1.393       .  A
C469        C474   1.394       .  A
C469       C1390   1.451       .  S
C470        C471   1.390       .  A
C470       C1155   1.444       .  S
C471        C472   1.381       .  A
C471       C1071   1.463       .  S
C472        C473   1.385       .  A
C472       C1026   1.456       .  S
C473        C474   1.388       .  A
C473       C1043   1.450       .  S
C474       C1057   1.449       .  S
C475        C476   1.439       .  A
C475        C480   1.404       .  A
C475        C657   1.521       .  S
C476        C477   1.449       .  A
C476        H481   1.081       .  S
C477        C478   1.400       .  A
C477        C495   1.502       .  S
C478        C479   1.397       .  A
C478        H482   1.084       .  S
C479        C480   1.396       .  A
C479       C1040   1.463       .  S
C480        H483   1.085       .  S
O484        C492   1.272   1_545  A
O484       Co504   1.992       .  S
O485        C493   1.260       .  A
O485       Co505   1.961       .  S
O486        C494   1.273       .  A
O486       Co506   2.038       .  S
O487        C495   1.296       .  A
O487       Co507   2.128       .  S
O488        C494   1.264       .  A
O488       Co505   1.968   1_565  S
O489        C495   1.255       .  A
O489       Co504   1.952       .  S
O490        C493   1.257       .  A
O490       Co507   2.014       .  S
O491        C492   1.295       .  A
O491       Co506   2.090       .  S
C493        C780   1.496       .  S
O496        C509   1.268       .  A
O496       Co504   1.963       .  S
O497        C510   1.264       .  A
O497       Co505   2.027   1_565  S
O498        C511   1.258   1_565  A
O498       Co506   1.984       .  S
O499        C512   1.277       .  A
O499       Co507   1.994       .  S
O500        C512   1.266       .  A
O500       Co505   2.013       .  S
O501        C511   1.248       .  A
O501       Co504   2.022       .  S
O502        C509   1.293       .  A
O502       Co507   2.074       .  S
O503        C510   1.268       .  A
O503       Co506   2.002       .  S
Co504       O508   2.024       .  S
Co505       O508   2.132       .  S
Co506       O508   2.076   1_565  S
Co507       O508   2.170       .  S
C509        C807   1.506       .  S
C512        C544   1.486       .  S
O513        C521   1.252       .  A
O513       Co533   2.031   1_556  S
O514        C522   1.270       .  A
O514       Co534   2.019       .  S
O515        C523   1.269       .  A
O515       Co535   1.998       .  S
O516        C524   1.297       .  A
O516       Co536   2.086       .  S
O517        C523   1.260       .  A
O517       Co534   2.009   1_556  S
O518        C524   1.269       .  A
O518       Co533   1.961       .  S
O519        C522   1.278       .  A
O519       Co536   1.990       .  S
O520        C521   1.258       .  A
O520       Co535   1.993       .  S
C522        C546   1.487       .  S
C523        C555   1.489       .  S
C524        C798   1.511       .  S
O525        C538   1.261       .  A
O525       Co533   1.961       .  S
O526        C539   1.270       .  A
O526       Co534   1.978   1_556  S
O527        C540   1.291       .  A
O527       Co535   2.088       .  S
O528        C541   1.258       .  A
O528       Co536   2.014       .  S
O529        C541   1.263       .  A
O529       Co534   1.973       .  S
O530        C540   1.275       .  A
O530       Co533   1.986   1_556  S
O531        C538   1.292       .  A
O531       Co536   2.106       .  S
O532        C539   1.271       .  A
O532       Co535   2.009       .  S
Co533       O537   2.010       .  S
Co534       O537   2.134       .  S
Co535       O537   2.063   1_556  S
Co536       O537   2.160       .  S
C539        C562   1.483       .  S
C540        C598   1.502       .  S
C541        C782   1.496       .  S
C542        C543   1.390       .  A
C542        C547   1.390       .  A
C542       C1015   1.438       .  S
C543        C544   1.386       .  A
C543        H548   1.086       .  S
C544        C545   1.423       .  A
C545        C546   1.424       .  A
C545        H549   1.081       .  S
C546        C547   1.390       .  A
C547        H550   1.085       .  S
C551        C552   1.400       .  A
C551        C556   1.427       .  A
C551        C578   1.502       .  S
C552        C553   1.407       .  A
C552        H557   1.084       .  S
C553        C554   1.397       .  A
C553        C998   1.452       .  S
C554        C555   1.385       .  A
C554        H558   1.086       .  S
C555        C556   1.414       .  A
C556        H559   1.077       .  S
C560        C561   1.391       .  A
C560        C565   1.404       .  A
C560        C987   1.461       .  S
C561        C562   1.385       .  A
C561        H566   1.086       .  S
C562        C563   1.427       .  A
C563        C564   1.429       .  A
C563        H567   1.081       .  S
C564        C565   1.404       .  A
C564        C580   1.505       .  S
C565        H568   1.084       .  S
O569        C577   1.254       .  A
O569       Co589   2.002       .  S
O570        C578   1.293       .  A
O570       Co590   2.096       .  S
O571        C579   1.269       .  A
O571       Co591   1.972       .  S
O572        C580   1.266       .  A
O572       Co592   1.967       .  S
O573        C579   1.271       .  A
O573       Co590   2.002       .  S
O574        C580   1.286       .  A
O574       Co589   2.094       .  S
O575        C578   1.272       .  A
O575       Co592   1.972       .  S
O576        C577   1.261       .  A
O576       Co591   1.962       .  S
C577        C624   1.494       .  S
C579        C678   1.480       .  S
O581        C594   1.298       .  A
O581       Co589   2.081   1_565  S
O582        C595   1.271       .  A
O582       Co590   2.015   1_565  S
O583        C596   1.268       .  A
O583       Co591   2.015       .  S
O584        C597   1.251   1_545  A
O584       Co592   2.050       .  S
O585        C597   1.259       .  A
O585       Co590   1.983   1_565  S
O586        C596   1.281   1_565  A
O586       Co589   1.997   1_565  S
O587        C594   1.269   1_545  A
O587       Co592   1.960       .  S
O588        C595   1.259   1_545  A
O588       Co591   2.007       .  S
Co589       O593   2.164       .  S
Co590       O593   2.067       .  S
Co591       O593   2.139       .  S
Co592       O593   2.042       .  S
C598        C599   1.430       .  A
C598        C603   1.401       .  A
C599        C600   1.416       .  A
C599        H604   1.077       .  S
C600        C601   1.384       .  A
C601        C602   1.399       .  A
C601        H605   1.086       .  S
C602        C603   1.403       .  A
C602        C970   1.456       .  S
C603        H606   1.084       .  S
C607        C608   1.423       .  A
C607        C612   1.397       .  A
C607        C730   1.499       .  S
C608        C609   1.417       .  A
C608        H613   1.079   1_655  S
C609        C610   1.389       .  A
C610        C611   1.402       .  A
C610        H614   1.085       .  S
C611        C612   1.405       .  A
C611        C956   1.451       .  S
C612        H615   1.084       .  S
C616        C617   1.413       .  A
C616        C621   1.404       .  A
C616        C931   1.481       .  S
C617        C618   1.418       .  A
C617        C959   1.489       .  S
C618        C619   1.417       .  A
C618       C1351   1.477       .  S
C619        C620   1.406       .  A
C619        C973   1.488       .  S
C620        C621   1.402       .  A
C620        C984   1.491       .  S
C621        C942   1.473       .  S
C622        C623   1.400       .  A
C622        C627   1.401       .  A
C622        C945   1.458       .  S
C623        C624   1.403       .  A
C623        H628   1.084       .  S
C624        C625   1.427       .  A
C625        C626   1.424       .  A
C625        H629   1.083       .  S
C626        C627   1.405       .  A
C626        C658   1.498       .  S
C627        H630   1.084       .  S
O631        C639   1.282   1_565  A
O631       Co651   2.002   1_565  S
O632        C640   1.274       .  A
O632       Co652   2.040   1_565  S
O633        C641   1.266   1_545  A
O633       Co653   2.042       .  S
O634        C642   1.266   1_545  A
O634       Co654   1.967       .  S
O635        C641   1.277       .  A
O635       Co652   2.003   1_565  S
O636        C642   1.298       .  A
O636       Co651   2.088   1_565  S
O637        C640   1.244   1_545  A
O637       Co654   1.990       .  S
O638        C639   1.268       .  A
O638       Co653   2.011       .  S
O643        C656   1.290       .  A
O643       Co651   2.110       .  S
O644        C657   1.277       .  A
O644       Co652   2.086       .  S
O645        C658   1.254       .  A
O645       Co653   1.955       .  S
O646        C659   1.280       .  A
O646       Co654   2.004       .  S
O647        C659   1.291       .  A
O647       Co652   2.070       .  S
O648        C658   1.254       .  A
O648       Co651   2.018       .  S
O649        C656   1.260       .  A
O649       Co654   1.950       .  S
O650        C657   1.256       .  A
O650       Co653   1.942       .  S
Co651       O655   2.180       .  S
Co652       O655   2.112       .  S
Co653       O655   2.114       .  S
Co654       O655   2.033       .  S
C656        C669   1.501       .  S
C659        C660   1.499       .  S
C660        C661   1.394       .  A
C660        C665   1.428       .  A
C661        C662   1.399       .  A
C661        H666   1.085       .  S
C662        C663   1.393       .  A
C662       C1054   1.447       .  S
C663        C664   1.389       .  A
C663        H667   1.086       .  S
C664        C665   1.422       .  A
C664        C748   1.491       .  S
C665        H668   1.078       .  S
C669        C670   1.393       .  A
C669        C674   1.436       .  A
C670        C671   1.394       .  A
C670        H675   1.085       .  S
C671        C672   1.394       .  A
C671        C928   1.453       .  S
C672        C673   1.393       .  A
C672        H676   1.084       .  S
C673        C674   1.434       .  A
C673        C732   1.498       .  S
C674        H677   1.081       .  S
C678        C679   1.428       .  A
C678        C683   1.381       .  A
C679        C680   1.431       .  A
C679        H684   1.082       .  S
C680        C681   1.407       .  A
C680        C718   1.506       .  S
C681        C682   1.404       .  A
C681        H685   1.082       .  S
C682        C683   1.387       .  A
C682        C914   1.459       .  S
C683        H686   1.087       .  S
C687        C688   1.399       .  A
C687        C692   1.407       .  A
C687       C1407   1.482       .  S
C688        C689   1.403       .  A
C688       C1239   1.468       .  S
C689        C690   1.417       .  A
C689        C900   1.505       .  S
C690        C691   1.426       .  A
C690        C886   1.469       .  S
C691        C692   1.409       .  A
C691        C917   1.500       .  S
C692       C1001   1.486       .  S
O693        C701   1.254       .  A
O693       Co713   2.045       .  S
O694        C702   1.277       .  A
O694       Co714   2.041       .  S
O695        C703   1.268       .  A
O695       Co715   2.007       .  S
O696        C704   1.292       .  A
O696       Co716   2.065       .  S
O697        C703   1.249       .  A
O697       Co714   1.975   1_565  S
O698        C704   1.268       .  A
O698       Co713   1.960       .  S
O699        C702   1.278       .  A
O699       Co716   1.999       .  S
O700        C701   1.256   1_565  A
O700       Co715   1.985       .  S
C702        C753   1.496       .  S
C704        C809   1.509       .  S
O705        C718   1.265       .  A
O705       Co713   1.965       .  S
O706        C719   1.276       .  A
O706       Co714   1.990   1_565  S
O707        C720   1.294       .  A
O707       Co715   2.094       .  S
O708        C721   1.249       .  A
O708       Co716   1.990       .  S
O709        C721   1.261       .  A
O709       Co714   1.956       .  S
O710        C720   1.271   1_545  A
O710       Co713   1.975       .  S
O711        C718   1.288       .  A
O711       Co716   2.099       .  S
O712        C719   1.274       .  A
O712       Co715   2.015       .  S
Co713       O717   2.043       .  S
Co714       O717   2.134       .  S
Co715       O717   2.064   1_565  S
Co716       O717   2.162       .  S
C721        C773   1.490       .  S
O722        C730   1.275   1_455  A
O722       Co742   1.980       .  S
O723        C731   1.258       .  A
O723       Co743   1.956       .  S
O724        C732   1.272       .  A
O724       Co744   2.012       .  S
O725        C733   1.287       .  A
O725       Co745   2.091       .  S
O726        C732   1.275   1_455  A
O726       Co743   1.991       .  S
O727        C733   1.264       .  A
O727       Co742   1.959       .  S
O728        C731   1.256       .  A
O728       Co745   2.004       .  S
O729        C730   1.292       .  A
O729       Co744   2.085       .  S
C731        C769   1.490       .  S
C733        C764   1.499       .  S
O734        C747   1.270       .  A
O734       Co742   1.974       .  S
O735        C748   1.255   1_455  A
O735       Co743   1.997       .  S
O736        C749   1.255       .  A
O736       Co744   1.970   1_455  S
O737        C750   1.279       .  A
O737       Co745   1.996       .  S
O738        C750   1.275       .  A
O738       Co743   2.036       .  S
O739        C749   1.248       .  A
O739       Co742   2.022       .  S
O740        C747   1.300       .  A
O740       Co745   2.097       .  S
O741        C748   1.270   1_455  A
O741       Co744   2.005   1_455  S
Co742       O746   2.045       .  S
Co743       O746   2.136       .  S
Co744       O746   2.057   1_655  S
Co745       O746   2.168       .  S
C747        C818   1.531       .  S
C750        C755   1.493       .  S
C751        C752   1.421       .  A
C751        C756   1.415       .  A
C751        C872   1.503       .  S
C752        C753   1.399       .  A
C752        H757   1.078       .  S
C753        C754   1.412       .  A
C754        C755   1.411       .  A
C754        H758   1.074       .  S
C755        C756   1.391       .  A
C756        H759   1.075       .  S
C760        C761   1.402       .  A
C760        C765   1.429       .  A
C761        C762   1.401       .  A
C761        H766   1.084       .  S
C762        C763   1.398       .  A
C762        C903   1.474       .  S
C763        C764   1.396       .  A
C763        H767   1.084       .  S
C764        C765   1.427       .  A
C765        H768   1.082       .  S
C769        C770   1.399       .  A
C769        C774   1.422       .  A
C770        C771   1.399       .  A
C770        H775   1.084       .  S
C771        C772   1.398       .  A
C771        C889   1.453       .  S
C772        C773   1.398       .  A
C772        H776   1.085       .  S
C773        C774   1.423       .  A
C774        H777   1.083       .  S
C778        C779   1.392       .  A
C778        C783   1.397       .  A
C778       C1029   1.459       .  S
C779        C780   1.394       .  A
C779        H784   1.085       .  S
C780        C781   1.433       .  A
C781        C782   1.435       .  A
C781        H785   1.081       .  S
C782        C783   1.397       .  A
C783        H786   1.084       .  S
C787        C788   1.399       .  A
C787        C792   1.392       .  A
C787       C1180   1.448       .  S
C788        C789   1.397       .  A
C788        H793   1.085       .  S
C789        C790   1.422       .  A
C790        C791   1.422       .  A
C790        H794   1.083       .  S
C791        C792   1.393       .  A
C792        H795   1.085       .  S
C796        C797   1.390       .  A
C796        C801   1.398       .  A
C796        C858   1.483       .  S
C797        C798   1.403       .  A
C797        H802   1.085       .  S
C798        C799   1.435       .  A
C799        C800   1.436       .  A
C799        H803   1.082       .  S
C800        C801   1.414       .  A
C801        H804   1.084       .  S
C805        C806   1.389       .  A
C805        C810   1.383       .  A
C805        C847   1.479       .  S
C806        C807   1.410       .  A
C806        H811   1.084       .  S
C807        C808   1.437       .  A
C808        C809   1.432       .  A
C808        H812   1.082       .  S
C809        C810   1.401       .  A
C810        H813   1.082       .  S
C814        C815   1.390       .  A
C814        C819   1.386       .  A
C814        C830   1.476       .  S
C815        C816   1.411       .  A
C815        H820   1.083       .  S
C816        C817   1.451       .  A
C817        C818   1.448       .  A
C817        H821   1.082       .  S
C818        C819   1.402       .  A
C819        H822   1.084       .  S
C823        C824   1.381       .  A
C823        C828   1.398       .  A
C823       C1169   1.452       .  S
C824        C825   1.392       .  A
C824        C861   1.501       .  S
C825        C826   1.416       .  A
C825       C1012   1.443       .  S
C826        C827   1.430       .  A
C826        C844   1.503       .  S
C827        C828   1.428       .  A
C827        C875   1.513       .  S
C828        C833   1.492       .  S
C829        C830   1.394       .  A
C829        C834   1.391       .  A
C829        H836   1.085       .  S
C830        C831   1.407       .  A
C831        C832   1.403       .  A
C831        N838   1.429       .  S
C832        C833   1.407       .  A
C832        H837   1.084       .  S
C833        C834   1.423       .  A
C834        N835   1.436       .  S
N835        H839   1.046       .  S
N835        H840   1.038       .  S
N838        H841   1.045       .  S
N838        H842   1.046       .  S
C843        C844   1.400       .  A
C843        C848   1.392       .  A
C843        H850   1.074       .  S
C844        C845   1.417       .  A
C845        C846   1.404       .  A
C845        N852   1.432       .  S
C846        C847   1.403       .  A
C846        H851   1.084       .  S
C847        C848   1.411       .  A
C848        N849   1.440       .  S
N849        H853   1.046       .  S
N849        H854   1.046       .  S
N852        H855   1.044       .  S
N852        H856   1.045       .  S
C857        C858   1.395       .  A
C857        C862   1.407       .  A
C857        H864   1.084       .  S
C858        C859   1.408       .  A
C859        C860   1.405       .  A
C859        N866   1.428       .  S
C860        C861   1.396       .  A
C860        H865   1.082       .  S
C861        C862   1.418       .  A
C862        N863   1.433       .  S
N863        H867   1.046       .  S
N863        H868   1.045       .  S
N866        H869   1.044       .  S
N866        H870   1.044       .  S
C871        C872   1.406       .  A
C871        C876   1.399       .  A
C871        H878   1.080       .  S
C872        C873   1.417       .  A
C873        C874   1.401       .  A
C873        N880   1.437       .  S
C874        C875   1.405       .  A
C874        H879   1.075       .  S
C875        C876   1.413       .  A
C876        N877   1.430       .  S
N877        H881   1.045       .  S
N877        H882   1.045       .  S
N880        H883   1.045       .  S
N880        H884   1.046       .  S
C885        C886   1.381       .  A
C885        C890   1.347       .  A
C885        H892   1.063       .  S
C886        C887   1.408       .  A
C887        C888   1.409       .  A
C887        N894   1.430       .  S
C888        C889   1.404       .  A
C888        H893   1.083       .  S
C889        C890   1.408       .  A
C890        N891   1.433       .  S
N891        H895   1.045       .  S
N891        H896   1.046       .  S
N894        H897   1.045       .  S
N894        H898   1.045       .  S
C899        C900   1.409       .  A
C899        C904   1.391       .  A
C899        H906   1.072       .  S
C900        C901   1.416       .  A
C901        C902   1.409       .  A
C901        N908   1.436       .  S
C902        C903   1.408       .  A
C902        H907   1.083       .  S
C903        C904   1.400       .  A
C904        N905   1.440       .  S
N905        H909   1.046       .  S
N905        H910   1.046       .  S
N908        H911   1.044       .  S
N908        H912   1.046       .  S
C913        C914   1.409       .  A
C913        C918   1.414       .  A
C913        H920   1.083       .  S
C914        C915   1.398       .  A
C915        C916   1.384       .  A
C915        N922   1.441       .  S
C916        C917   1.409       .  A
C916        H921   1.070       .  S
C917        C918   1.410       .  A
C918        N919   1.436       .  S
N919        H923   1.045       .  S
N919        H924   1.044       .  S
N922        H925   1.045       .  S
N922        H926   1.046       .  S
C927        C928   1.408       .  A
C927        C932   1.410       .  A
C927        H934   1.083       .  S
C928        C929   1.397       .  A
C929        C930   1.376       .  A
C929        N936   1.434       .  S
C930        C931   1.400       .  A
C930        H935   1.082       .  S
C931        C932   1.404       .  A
C932        N933   1.435       .  S
N933        H937   1.046       .  S
N933        H938   1.045       .  S
N936        H939   1.045       .  S
N936        H940   1.045       .  S
C941        C942   1.410       .  A
C941        C946   1.409       .  A
C941        H948   1.083       .  S
C942        C943   1.407       .  A
C943        C944   1.360       .  A
C943        N950   1.428       .  S
C944        C945   1.394       .  A
C944        H949   1.080       .  S
C945        C946   1.401       .  A
C946        N947   1.435       .  S
N947        H951   1.046       .  S
N947        H952   1.046       .  S
N950        H953   1.045       .  S
N950        H954   1.045       .  S
C955        C956   1.403       .  A
C955        C960   1.407       .  A
C955        H962   1.083       .  S
C956        C957   1.401       .  A
C957        C958   1.376       .  A
C957        N964   1.443       .  S
C958        C959   1.401       .  A
C958        H963   1.068       .  S
C959        C960   1.405       .  A
C960        N961   1.431       .  S
N961        H965   1.045       .  S
N961        H966   1.045       .  S
N964        H967   1.045       .  S
N964        H968   1.046       .  S
C969        C970   1.400       .  A
C969        C974   1.403       .  A
C969        H976   1.084       .  S
C970        C971   1.407       .  A
C971        C972   1.374       .  A
C971        N978   1.441       .  S
C972        C973   1.398       .  A
C972        H977   1.063       .  S
C973        C974   1.418       .  A
C974        N975   1.437       .  S
N975        H979   1.045       .  S
N975        H980   1.044       .  S
N978        H981   1.044       .  S
N978        H982   1.046       .  S
C983        C984   1.402       .  A
C983        C988   1.403       .  A
C983        H990   1.083       .  S
C984        C985   1.419       .  A
C985        C986   1.389       .  A
C985        N992   1.433       .  S
C986        C987   1.391       .  A
C986        H991   1.085       .  S
C987        C988   1.417       .  A
C988        N989   1.438       .  S
N989        H993   1.046       .  S
N989        H994   1.043       .  S
N992        H995   1.044       .  S
N992        H996   1.045       .  S
C997        C998   1.398       .  A
C997       C1002   1.404       .  A
C997       H1004   1.083       .  S
C998        C999   1.401       .  A
C999       C1000   1.378       .  A
C999       N1006   1.436       .  S
C1000      C1001   1.401       .  A
C1000      H1005   1.071       .  S
C1001      C1002   1.411       .  A
C1002      N1003   1.432       .  S
N1003      H1007   1.045       .  S
N1003      H1008   1.045       .  S
N1006      H1009   1.046       .  S
N1006      H1010   1.046       .  S
C1011      C1012   1.393       .  A
C1011      C1016   1.386       .  A
C1011      H1018   1.084       .  S
C1012      C1013   1.407       .  A
C1013      C1014   1.390       .  A
C1013      N1020   1.438       .  S
C1014      C1015   1.393       .  A
C1014      H1019   1.084       .  S
C1015      C1016   1.410       .  A
C1016      N1017   1.439       .  S
N1017      H1021   1.046       .  S
N1017      H1022   1.046       .  S
N1020      H1023   1.045       .  S
N1020      H1024   1.046       .  S
C1025      C1026   1.415       .  A
C1025      C1030   1.389       .  A
C1025      H1032   1.081       .  S
C1026      C1027   1.394       .  A
C1027      C1028   1.378       .  A
C1027      N1034   1.439       .  S
C1028      C1029   1.418       .  A
C1028      H1033   1.077       .  S
C1029      C1030   1.392       .  A
C1030      N1031   1.437       .  S
N1031      H1035   1.046       .  S
N1031      H1036   1.046       .  S
N1034      H1037   1.044       .  S
N1034      H1038   1.045       .  S
C1039      C1040   1.408       .  A
C1039      C1044   1.366       .  A
C1039      H1046   1.077       .  S
C1040      C1041   1.409       .  A
C1041      C1042   1.398       .  A
C1041      N1048   1.438       .  S
C1042      C1043   1.408       .  A
C1042      H1047   1.083       .  S
C1043      C1044   1.399       .  A
C1044      N1045   1.435       .  S
N1045      H1049   1.046       .  S
N1045      H1050   1.035       .  S
N1048      H1051   1.044       .  S
N1048      H1052   1.046       .  S
C1053      C1054   1.409       .  A
C1053      C1058   1.381       .  A
C1053      H1060   1.084       .  S
C1054      C1055   1.394       .  A
C1055      C1056   1.390       .  A
C1055      N1062   1.437       .  S
C1056      C1057   1.405       .  A
C1056      H1061   1.082       .  S
C1057      C1058   1.402       .  A
C1058      N1059   1.439       .  S
N1059      H1063   1.046       .  S
N1059      H1064   1.042       .  S
N1062      H1065   1.046       .  S
N1062      H1066   1.046       .  S
C1067      C1068   1.400       .  A
C1067      C1072   1.373       .  A
C1067      H1074   1.085       .  S
C1068      C1069   1.398       .  A
C1069      C1070   1.401       .  A
C1069      N1076   1.436       .  S
C1070      C1071   1.408       .  A
C1070      H1075   1.084       .  S
C1071      C1072   1.412       .  A
C1072      N1073   1.437       .  S
N1073      H1077   1.045       .  S
N1073      H1078   1.035       .  S
N1076      H1079   1.046       .  S
N1076      H1080   1.046       .  S
C1081      C1082   1.384       .  A
C1081      C1086   1.384       .  A
C1081      H1088   1.085       .  S
C1082      C1083   1.415       .  A
C1083      C1084   1.381       .  A
C1083      N1090   1.434       .  S
C1084      C1085   1.391       .  A
C1084      H1089   1.084       .  S
C1085      C1086   1.425       .  A
C1086      N1087   1.434       .  S
N1087      H1091   1.045       .  S
N1087      H1092   1.035       .  S
N1090      H1093   1.045       .  S
N1090      H1094   1.044       .  S
C1095      C1096   1.403       .  A
C1095      C1100   1.399       .  A
C1095      H1102   1.084       .  S
C1096      C1097   1.390       .  A
C1097      C1098   1.360       .  A
C1097      N1104   1.433       .  S
C1098      C1099   1.409       .  A
C1098      H1103   1.073       .  S
C1099      C1100   1.409       .  A
C1100      N1101   1.437       .  S
N1101      H1105   1.045       .  S
N1101      H1106   1.044       .  S
N1104      H1107   1.044       .  S
N1104      H1108   1.045       .  S
C1109      C1110   1.398       .  A
C1109      C1114   1.406       .  A
C1109      H1116   1.083       .  S
C1110      C1111   1.404       .  A
C1111      C1112   1.369       .  A
C1111      N1118   1.437       .  S
C1112      C1113   1.393       .  A
C1112      H1117   1.068       .  S
C1113      C1114   1.414       .  A
C1114      N1115   1.438       .  S
N1115      H1119   1.045       .  S
N1115      H1120   1.044       .  S
N1118      H1121   1.046       .  S
N1118      H1122   1.045       .  S
C1123      C1124   1.401       .  A
C1123      C1128   1.380       .  A
C1123      H1130   1.086       .  S
C1124      C1125   1.399       .  A
C1125      C1126   1.379       .  A
C1125      N1132   1.438       .  S
C1126      C1127   1.402       .  A
C1126      H1131   1.085       .  S
C1127      C1128   1.409       .  A
C1128      N1129   1.436       .  S
N1129      H1133   1.046       .  S
N1129      H1134   1.036       .  S
N1132      H1135   1.043       .  S
N1132      H1136   1.046       .  S
C1137      C1138   1.389       .  A
C1137      C1142   1.360       .  A
C1137      H1144   1.087       .  S
C1138      C1139   1.402       .  A
C1139      C1140   1.408       .  A
C1139      N1146   1.435       .  S
C1140      C1141   1.409       .  A
C1140      H1145   1.083       .  S
C1141      C1142   1.411       .  A
C1142      N1143   1.430       .  S
N1143      H1147   1.043       .  S
N1143      H1148   1.045       .  S
N1146      H1149   1.046       .  S
N1146      H1150   1.046       .  S
C1151      C1152   1.404       .  A
C1151      C1156   1.382       .  A
C1151      H1158   1.085       .  S
C1152      C1153   1.394       .  A
C1153      C1154   1.378       .  A
C1153      N1160   1.432       .  S
C1154      C1155   1.403       .  A
C1154      H1159   1.084       .  S
C1155      C1156   1.406       .  A
C1156      N1157   1.440       .  S
N1157      H1161   1.046       .  S
N1157      H1162   1.042       .  S
N1160      H1163   1.046       .  S
N1160      H1164   1.045       .  S
C1165      C1166   1.394       .  A
C1165      C1170   1.393       .  A
C1165      H1172   1.084       .  S
C1166      C1167   1.408       .  A
C1167      C1168   1.386       .  A
C1167      N1174   1.439       .  S
C1168      C1169   1.394       .  A
C1168      H1173   1.082       .  S
C1169      C1170   1.406       .  A
C1170      N1171   1.438       .  S
N1171      H1175   1.046       .  S
N1171      H1176   1.046       .  S
N1174      H1177   1.046       .  S
N1174      H1178   1.046       .  S
C1179      C1180   1.404       .  A
C1179      C1184   1.406       .  A
C1179      H1186   1.083       .  S
C1180      C1181   1.413       .  A
C1181      C1182   1.342       .  A
C1181      N1188   1.432       .  S
C1182      C1183   1.382       .  A
C1182      H1187   1.065       .  S
C1183      C1184   1.414       .  A
C1184      N1185   1.436       .  S
N1185      H1189   1.045       .  S
N1185      H1190   1.044       .  S
N1188      H1191   1.041       .  S
N1188      H1192   1.040       .  S
C1193      C1194   1.409       .  A
C1193      C1198   1.391       .  A
C1193      H1200   1.082       .  S
C1194      C1195   1.414       .  A
C1195      C1196   1.410       .  A
C1195      N1202   1.436       .  S
C1196      C1197   1.409       .  A
C1196      H1201   1.084       .  S
C1197      C1198   1.397       .  A
C1198      N1199   1.433       .  S
N1199      H1203   1.046       .  S
N1199      H1204   1.046       .  S
N1202      H1205   1.044       .  S
N1202      H1206   1.046       .  S
C1207      C1208   1.401       .  A
C1207      C1212   1.376       .  A
C1207      H1214   1.074       .  S
C1208      C1209   1.406       .  A
C1209      C1210   1.402       .  A
C1209      N1216   1.436       .  S
C1210      C1211   1.399       .  A
C1210      H1215   1.083       .  S
C1211      C1212   1.400       .  A
C1212      N1213   1.441       .  S
N1213      H1217   1.046       .  S
N1213      H1218   1.045       .  S
N1216      H1219   1.046       .  S
N1216      H1220   1.046       .  S
C1221      C1222   1.408       .  A
C1221      C1226   1.407       .  A
C1221      H1228   1.084       .  S
C1222      C1223   1.406       .  A
C1223      C1224   1.389       .  A
C1223      N1230   1.440       .  S
C1224      C1225   1.407       .  A
C1224      H1229   1.081       .  S
C1225      C1226   1.412       .  A
C1226      N1227   1.436       .  S
N1227      H1231   1.046       .  S
N1227      H1232   1.044       .  S
N1230      H1233   1.043       .  S
N1230      H1234   1.045       .  S
C1235      C1236   1.396       .  A
C1235      C1240   1.394       .  A
C1235      H1242   1.084       .  S
C1236      C1237   1.401       .  A
C1237      C1238   1.380       .  A
C1237      N1244   1.441       .  S
C1238      C1239   1.399       .  A
C1238      H1243   1.072       .  S
C1239      C1240   1.413       .  A
C1240      N1241   1.438       .  S
N1241      H1245   1.046       .  S
N1241      H1246   1.043       .  S
N1244      H1247   1.046       .  S
N1244      H1248   1.046       .  S
C1249      C1250   1.408       .  A
C1249      C1254   1.378       .  A
C1249      H1256   1.067       .  S
C1250      C1251   1.416       .  A
C1251      C1252   1.411       .  A
C1251      N1258   1.436       .  S
C1252      C1253   1.409       .  A
C1252      H1257   1.084       .  S
C1253      C1254   1.402       .  A
C1254      N1255   1.441       .  S
N1255      H1259   1.046       .  S
N1255      H1260   1.043       .  S
N1258      H1261   1.044       .  S
N1258      H1262   1.046       .  S
C1263      C1264   1.384       .  A
C1263      C1268   1.348       .  A
C1263      H1270   1.066       .  S
C1264      C1265   1.417       .  A
C1265      C1266   1.409       .  A
C1265      N1272   1.436       .  S
C1266      C1267   1.404       .  A
C1266      H1271   1.083       .  S
C1267      C1268   1.406       .  A
C1268      N1269   1.433       .  S
N1269      H1273   1.045       .  S
N1269      H1274   1.045       .  S
N1272      H1275   1.044       .  S
N1272      H1276   1.045       .  S
C1277      C1278   1.402       .  A
C1277      C1282   1.400       .  A
C1277      H1284   1.084       .  S
C1278      C1279   1.425       .  A
C1279      C1280   1.377       .  A
C1279      N1286   1.435       .  S
C1280      C1281   1.386       .  A
C1280      H1285   1.086       .  S
C1281      C1282   1.405       .  A
C1282      N1283   1.435       .  S
N1283      H1287   1.046       .  S
N1283      H1288   1.045       .  S
N1286      H1289   1.036       .  S
N1286      H1290   1.046       .  S
C1291      C1292   1.389       .  A
C1291      C1296   1.376       .  A
C1291      H1298   1.087       .  S
C1292      C1293   1.408       .  A
C1293      C1294   1.401       .  A
C1293      N1300   1.437       .  S
C1294      C1295   1.409       .  A
C1294      H1299   1.084       .  S
C1295      C1296   1.427       .  A
C1296      N1297   1.430       .  S
N1297      H1301   1.046       .  S
N1297      H1302   1.023       .  S
N1300      H1303   1.044       .  S
N1300      H1304   1.046       .  S
C1305      C1306   1.402       .  A
C1305      C1310   1.376       .  A
C1305      H1312   1.071       .  S
C1306      C1307   1.417       .  A
C1307      C1308   1.402       .  A
C1307      N1314   1.437       .  S
C1308      C1309   1.400       .  A
C1308      H1313   1.084       .  S
C1309      C1310   1.409       .  A
C1310      N1311   1.441       .  S
N1311      H1315   1.046       .  S
N1311      H1316   1.043       .  S
N1314      H1317   1.044       .  S
N1314      H1318   1.045       .  S
C1319      C1320   1.407       .  A
C1319      C1324   1.406       .  A
C1319      H1326   1.084       .  S
C1320      C1321   1.401       .  A
C1321      C1322   1.387       .  A
C1321      N1328   1.441       .  S
C1322      C1323   1.406       .  A
C1322      H1327   1.076       .  S
C1323      C1324   1.413       .  A
C1324      N1325   1.436       .  S
N1325      H1329   1.045       .  S
N1325      H1330   1.044       .  S
N1328      H1331   1.046       .  S
N1328      H1332   1.045       .  S
C1333      C1334   1.409       .  A
C1333      C1338   1.404       .  A
C1333      H1340   1.084       .  S
C1334      C1335   1.414       .  A
C1335      C1336   1.375       .  A
C1335      N1342   1.429       .  S
C1336      C1337   1.392       .  A
C1336      H1341   1.086       .  S
C1337      C1338   1.400       .  A
C1338      N1339   1.436       .  S
N1339      H1343   1.046       .  S
N1339      H1344   1.046       .  S
N1342      H1345   1.046       .  S
N1342      H1346   1.045       .  S
C1347      C1348   1.405       .  A
C1347      C1352   1.403       .  A
C1347      H1354   1.084       .  S
C1348      C1349   1.407       .  A
C1349      C1350   1.379       .  A
C1349      N1356   1.441       .  S
C1350      C1351   1.403       .  A
C1350      H1355   1.079       .  S
C1351      C1352   1.410       .  A
C1352      N1353   1.436       .  S
N1353      H1357   1.046       .  S
N1353      H1358   1.044       .  S
N1356      H1359   1.042       .  S
N1356      H1360   1.046       .  S
C1361      C1362   1.409       .  A
C1361      C1366   1.381       .  A
C1361      H1368   1.085       .  S
C1362      C1363   1.391       .  A
C1363      C1364   1.384       .  A
C1363      N1370   1.438       .  S
C1364      C1365   1.410       .  A
C1364      H1369   1.078       .  S
C1365      C1366   1.389       .  A
C1366      N1367   1.432       .  S
N1367      H1371   1.046       .  S
N1367      H1372   1.045       .  S
N1370      H1373   1.046       .  S
N1370      H1374   1.046       .  S
C1375      C1376   1.401       .  A
C1375      C1380   1.382       .  A
C1375      H1382   1.079       .  S
C1376      C1377   1.406       .  A
C1377      C1378   1.410       .  A
C1377      N1384   1.430       .  S
C1378      C1379   1.406       .  A
C1378      H1383   1.083   1_565  S
C1379      C1380   1.403       .  A
C1380      N1381   1.435       .  S
N1381      H1385   1.046       .  S
N1381      H1386   1.046       .  S
N1384      H1387   1.046   1_565  S
N1384      H1388   1.044   1_565  S
C1389      C1390   1.387       .  A
C1389      C1394   1.368       .  A
C1389      H1396   1.086       .  S
C1390      C1391   1.410       .  A
C1391      C1392   1.402       .  A
C1391      N1398   1.436       .  S
C1392      C1393   1.397       .  A
C1392      H1397   1.083       .  S
C1393      C1394   1.412       .  A
C1394      N1395   1.433       .  S
N1395      H1399   1.046       .  S
N1395      H1400   1.046       .  S
N1398      H1401   1.040       .  S
N1398      H1402   1.045       .  S
C1403      C1404   1.386       .  A
C1403      C1408   1.389       .  A
C1403      H1410   1.085       .  S
C1404      C1405   1.404       .  A
C1405      C1406   1.396       .  A
C1405      N1412   1.425       .  S
C1406      C1407   1.390       .  A
C1406      H1411   1.084       .  S
C1407      C1408   1.433       .  A
C1408      N1409   1.434       .  S
N1409      H1413   1.045       .  S
N1409      H1414   1.034       .  S
N1412      H1415   1.045       .  S
N1412      H1416   1.046       .  S
C1417      C1418   1.399       .  A
C1417      C1422   1.395       .  A
C1417      H1424   1.084       .  S
C1418      C1419   1.422       .  A
C1419      C1420   1.382       .  A
C1419      N1426   1.434       .  S
C1420      C1421   1.387       .  A
C1420      H1425   1.085       .  S
C1421      C1422   1.409       .  A
C1422      N1423   1.432       .  S
N1423      H1427   1.045       .  S
N1423      H1428   1.046       .  S
N1426      H1429   1.035       .  S
N1426      H1430   1.045       .  S
C1431      C1432   1.402       .  A
C1431      C1436   1.380       .  A
C1431      H1438   1.082       .  S
C1432      C1433   1.406       .  A
C1433      C1434   1.392       .  A
C1433      N1440   1.437       .  S
C1434      C1435   1.403       .  A
C1434      H1439   1.085       .  S
C1435      C1436   1.403       .  A
C1436      N1437   1.440       .  S
N1437      H1441   1.045       .  S
N1437      H1442   1.043       .  S
N1440      H1443   1.044       .  S
N1440      H1444   1.046       .  S
C1445      C1446   1.402       .  A
C1445      C1450   1.398       .  A
C1445      H1452   1.084       .  S
C1446      C1447   1.410       .  A
C1447      C1448   1.376       .  A
C1447      N1454   1.437       .  S
C1448      C1449   1.391       .  A
C1448      H1453   1.086       .  S
C1449      C1450   1.411       .  A
C1450      N1451   1.436       .  S
N1451      H1455   1.046       .  S
N1451      H1456   1.044       .  S
N1454      H1457   1.034       .  S
N1454      H1458   1.046       .  S
C1459      C1460   1.393       .  A
C1459      C1464   1.392       .  A
C1459      H1466   1.084       .  S
C1460      C1461   1.409       .  A
C1461      C1462   1.380       .  A
C1461      N1468   1.441       .  S
C1462      C1463   1.391       .  A
C1462      H1467   1.080       .  S
C1463      C1464   1.405       .  A
C1464      N1465   1.438       .  S
N1465      H1469   1.046       .  S
N1465      H1470   1.046       .  S
N1468      H1471   1.045       .  S
N1468      H1472   1.046       .  S
C1473      C1474   1.397       .  A
C1473      C1478   1.379       .  A
C1473      H1480   1.085       .  S
C1474      C1475   1.398       .  A
C1475      C1476   1.393       .  A
C1475      N1482   1.437       .  S
C1476      C1477   1.401       .  A
C1476      H1481   1.084       .  S
C1477      C1478   1.402       .  A
C1478      N1479   1.431       .  S
N1479      H1483   1.045       .  S
N1479      H1484   1.046       .  S
N1482      H1485   1.046       .  S
N1482      H1486   1.046       .  S
C1487      C1488   1.393       .  A
C1487      C1492   1.376       .  A
C1487      H1494   1.086       .  S
C1488      C1489   1.399       .  A
C1489      C1490   1.400       .  A
C1489      N1496   1.436       .  S
C1490      C1491   1.406       .  A
C1490      H1495   1.084       .  S
C1491      C1492   1.409       .  A
C1492      N1493   1.427       .  S
N1493      H1497   1.046       .  S
N1493      H1498   1.046       .  S
N1496      H1499   1.046       .  S
N1496      H1500   1.046       .  S
