geometry optimzed in LAMMPS
_audit_creation_date              2020-11-30 
_audit_creation_method            'lammps2cif' 
_symmetry_space_group_name_H-M    'P1' 
_symmetry_Int_Tables_number       1 
_symmetry_cell_setting            triclinic 
loop_ 
_symmetry_equiv_pos_as_xyz 
  x,y,z 
_cell_length_a                    48.45455451 
_cell_length_b                    48.31259622366462 
_cell_length_c                    89.84383848095227 
_cell_angle_alpha                 89.86607033243111 
_cell_angle_beta                  89.99223247439915 
_cell_angle_gamma                 90.02689755413735 
loop_ 
_atom_site_label 
_atom_site_type_symbol 
_atom_site_fract_x 
_atom_site_fract_y 
_atom_site_fract_z 
_atom_site_charge 
N1          N  0.65311142  0.02773760  0.31859317    -0.27300
N2          N  0.64246850  0.02066076  0.30562021    -0.35200
C3          C  0.61637302  0.02993362  0.30485315     0.01000
C4          C  0.61042232  0.04372914  0.31793628     0.07000
C5          C  0.63411764  0.04175155  0.32646194    -0.06100
H6          H  0.60308514  0.02778236  0.29524884     0.07700
H7          H  0.63746516  0.04992665  0.33750067     0.08900
Cu8        Cu  0.66515401  0.00184459  0.28899617     0.44200
Cu9        Cu  0.69346208  0.01929383  0.32440041     0.42000
Cu10       Cu  0.73914885  0.99638305  0.29461194     0.43900
N11         N  0.69293428  0.99219121  0.27234436    -0.34700
N12         N  0.72003991  0.99176519  0.27403459    -0.29000
C13         C  0.73191428  0.98883491  0.26055982    -0.05100
C14         C  0.71118085  0.98675349  0.25000455     0.07100
C15         C  0.68682601  0.98917265  0.25787515     0.00900
H16         H  0.75392524  0.98897921  0.25855378     0.08600
H17         H  0.66621154  0.99039061  0.25329735     0.07700
N18         N  0.75096341  0.99995232  0.31678695    -0.36200
N19         N  0.73431235  0.00857320  0.32748887    -0.28300
C20         C  0.74795299  0.00826994  0.34050012    -0.03600
C21         C  0.77431024  0.99864455  0.33792746     0.05000
C22         C  0.77564462  0.99369636  0.32278014     0.03100
H23         H  0.73915033  0.01414436  0.35110276     0.08200
H24         H  0.79324491  0.98625272  0.31655706     0.07100
N25         N  0.98270291  0.00040895  0.40407530    -0.27300
N26         N  0.99444955  0.98190795  0.41286164    -0.35200
C27         C  0.01999444  0.99041522  0.41634461     0.01000
C28         C  0.02457519  0.01566786  0.40955513     0.07000
C29         C  0.00055864  0.02135336  0.40173127    -0.06100
H30         H  0.03363577  0.97979163  0.42398667     0.07700
H31         H  0.99609065  0.03951600  0.39511708     0.08900
Cu32       Cu  0.97387754  0.94853320  0.42189324     0.44200
Cu33       Cu  0.94200039  0.99674473  0.39718413     0.42000
Cu34       Cu  0.90059622  0.94455897  0.41730759     0.43900
N35         N  0.94897811  0.92310881  0.43452097    -0.34700
N36         N  0.92180301  0.92241951  0.43348184    -0.29000
C37         C  0.91166779  0.90765100  0.44499227    -0.05100
C38         C  0.93367600  0.89829395  0.45347969     0.07100
C39         C  0.95690786  0.90874602  0.44656300     0.00900
H40         H  0.88995199  0.90524690  0.44746962     0.08600
H41         H  0.97782648  0.90824736  0.45075337     0.07700
N42         N  0.88620985  0.96859299  0.39976368    -0.36200
N43         N  0.90100822  0.98750575  0.39265970    -0.28300
C44         C  0.88566211  0.99849225  0.38167395    -0.03600
C45         C  0.86001999  0.98598090  0.38189713     0.05000
C46         C  0.86115289  0.96694682  0.39338425     0.03100
H47         H  0.89307456  0.01359917  0.37372236     0.08200
H48         H  0.84512533  0.95259606  0.39668936     0.07100
N49         N  0.46980691  0.66185230  0.87439676    -0.27300
N50         N  0.46129507  0.67650601  0.88594038    -0.35200
C51         C  0.43707037  0.66636643  0.89072941     0.01000
C52         C  0.42961896  0.64448524  0.88169651     0.07000
C53         C  0.45107868  0.64191326  0.87158955    -0.06100
H54         H  0.42650354  0.67348938  0.90060855     0.07700
H55         H  0.45318779  0.62633222  0.86302948     0.08900
Cu56       Cu  0.48331088  0.70835791  0.89574470     0.44200
Cu57       Cu  0.50696091  0.66923649  0.86338158     0.42000
Cu58       Cu  0.54329030  0.73064640  0.87672411     0.43900
N59         N  0.51042333  0.73698450  0.90466471    -0.34700
N60         N  0.53298168  0.74511958  0.89765895    -0.29000
C61         C  0.54855451  0.76021157  0.90703154    -0.05100
C62         C  0.53486844  0.76190341  0.92051633     0.07100
C63         C  0.51081512  0.74692684  0.91862082     0.00900
H64         H  0.56907643  0.76774960  0.90454563     0.08600
H65         H  0.49586471  0.74173279  0.92712954     0.07700
N66         N  0.55596372  0.70690098  0.85885926    -0.36200
N67         N  0.54403262  0.68367635  0.85449154    -0.28300
C68         C  0.56056786  0.67118824  0.84448417    -0.03600
C69         C  0.58408264  0.68723086  0.84261234     0.05000
C70         C  0.58002849  0.70998029  0.85166253     0.03100
H71         H  0.55655078  0.65113652  0.83959797     0.08200
H72         H  0.59391714  0.72713927  0.85341796     0.07100
N73         N  0.80521078  0.60708082  0.81583579    -0.27300
N74         N  0.82333658  0.61285843  0.80530720    -0.35200
C75         C  0.84773027  0.60146365  0.80876269     0.01000
C76         C  0.84521007  0.58812012  0.82230294     0.07000
C77         C  0.81780791  0.59179646  0.82640403    -0.06100
H78         H  0.86527738  0.60107742  0.80133064     0.07700
H79         H  0.80756443  0.58304697  0.83603134     0.08900
Cu80       Cu  0.81332731  0.63175564  0.78555766     0.44200
Cu81       Cu  0.76390363  0.61862348  0.81390883     0.42000
Cu82       Cu  0.74230588  0.64473738  0.77701325     0.43900
N83         N  0.79948142  0.64109008  0.76455933    -0.34700
N84         N  0.77323561  0.64452070  0.76106163    -0.29000
C85         C  0.77091208  0.64538785  0.74613258    -0.05100
C86         C  0.79708468  0.64284080  0.74008202     0.07100
C87         C  0.81457493  0.63991207  0.75208516     0.00900
H88         H  0.75157168  0.64633806  0.74014030     0.08600
H89         H  0.83629439  0.63477965  0.75176855     0.07700
N90         N  0.71722703  0.64407848  0.79573317    -0.36200
N91         N  0.72489710  0.63435717  0.80887659    -0.28300
C92         C  0.70421447  0.63826501  0.81859821    -0.03600
C93         C  0.68240264  0.65106397  0.81132873     0.05000
C94         C  0.69157036  0.65457787  0.79682638     0.03100
H95         H  0.70529904  0.63289198  0.83028254     0.08200
H96         H  0.68125575  0.66536258  0.78788352     0.07100
N97         N  0.93251578  0.53309108  0.63860621    -0.27300
N98         N  0.91620877  0.52582493  0.64976906    -0.35200
C99         C  0.92413687  0.50088076  0.65486927     0.01000
C100        C  0.94659593  0.49221210  0.64662333     0.07000
C101        C  0.95123399  0.51301591  0.63634977    -0.06100
H102        H  0.91538821  0.49066607  0.66450507     0.07700
H103        H  0.96767120  0.51409787  0.62823287     0.08900
Cu104      Cu  0.88656625  0.55135968  0.65920266     0.44200
Cu105      Cu  0.93174055  0.57123200  0.62805521     0.42000
Cu106      Cu  0.88564679  0.62038018  0.64439974     0.43900
N107        N  0.86252221  0.58287392  0.66798763    -0.34700
N108        N  0.86252781  0.60825943  0.66250110    -0.29000
C109        C  0.84742044  0.62472582  0.67132716    -0.05100
C110        C  0.83709178  0.60893648  0.68289029     0.07100
C111        C  0.84726165  0.58250456  0.68049890     0.00900
H112        H  0.84527556  0.64684780  0.66984101     0.08600
H113        H  0.84520805  0.56480626  0.68781629     0.07700
N114        N  0.91186573  0.62982766  0.62708096    -0.36200
N115        N  0.92909431  0.61196146  0.62098684    -0.28300
C116        C  0.94409965  0.62507799  0.61050789    -0.03600
C117        C  0.93547218  0.65238148  0.60989011     0.05000
C118        C  0.91528469  0.65467853  0.62067392     0.03100
H119        H  0.96025151  0.61555765  0.60396691     0.08200
H120        H  0.90434395  0.67324940  0.62389561     0.07100
N121        N  0.03304359  0.86889621  0.57923745    -0.27300
N122        N  0.02448610  0.88787917  0.56964154    -0.35200
C123        C  0.03700798  0.91203154  0.57266375     0.01000
C124        C  0.05403659  0.90837322  0.58485770     0.07000
C125        C  0.05134233  0.88065066  0.58860713    -0.06100
H126        H  0.03428097  0.93074556  0.56620190     0.07700
H127        H  0.06166311  0.86991538  0.59760598     0.08900
Cu128      Cu  0.99630903  0.88115958  0.55260614     0.44200
Cu129      Cu  0.01882528  0.82805124  0.57934379     0.42000
Cu130      Cu  0.97164073  0.81258075  0.54896344     0.43900
N131        N  0.96972080  0.86924208  0.53567421    -0.34700
N132        N  0.96112722  0.84347045  0.53419982    -0.29000
C133        C  0.94707398  0.84102021  0.52137999    -0.05100
C134        C  0.94641879  0.86664340  0.51452355     0.07100
C135        C  0.96114986  0.88403307  0.52384476     0.00900
H136        H  0.93936444  0.82170379  0.51695305     0.08600
H137        H  0.96714818  0.90519831  0.52158835     0.07700
N138        N  0.98209936  0.78480022  0.56543352    -0.36200
N139        N  0.99891573  0.79001874  0.57666642    -0.28300
C140        C  0.99861730  0.76813422  0.58601231    -0.03600
C141        C  0.98088579  0.74824051  0.58026141     0.05000
C142        C  0.97079691  0.75969790  0.56726286     0.03100
H143        H  0.00896894  0.76768755  0.59666383     0.08200
H144        H  0.95527256  0.75097399  0.55999817     0.07100
N145        N  0.55374976  0.74119134  0.05633913    -0.27300
N146        N  0.54951151  0.72978192  0.04321117    -0.35200
C147        C  0.53794075  0.70477933  0.04507327     0.01000
C148        C  0.53491113  0.70002424  0.06016108     0.07000
C149        C  0.54482535  0.72372573  0.06699152    -0.06100
H150        H  0.53056781  0.69192771  0.03606611     0.07700
H151        H  0.54464758  0.72830791  0.07877686     0.08900
Cu152      Cu  0.55674984  0.75031841  0.02352145     0.44200
Cu153      Cu  0.56986185  0.78072448  0.05831063     0.42000
Cu154      Cu  0.58207620  0.82076159  0.02354744     0.43900
N155        N  0.56220368  0.77358977  0.00455171    -0.34700
N156        N  0.57089883  0.79953072  0.00416322    -0.29000
C157        C  0.57128562  0.80807066  0.98982731    -0.05100
C158        C  0.56253150  0.78624561  0.98096012     0.07100
C159        C  0.55705804  0.76487387  0.99068953     0.00900
H160        H  0.57782430  0.82837333  0.98614735     0.08600
H161        H  0.54959580  0.74441787  0.98789511     0.07700
N162        N  0.59184201  0.83440579  0.04503852    -0.36200
N163        N  0.58743591  0.81980665  0.05729667    -0.28300
C164        C  0.59604411  0.83440152  0.06911014    -0.03600
C165        C  0.60658075  0.85946703  0.06424067     0.05000
C166        C  0.60331017  0.85880959  0.04886358     0.03100
H167        H  0.59468524  0.82720462  0.08050150     0.08200
H168        H  0.60788573  0.87507717  0.04098894     0.07100
N169        N  0.61554246  0.06134296  0.13216381    -0.27300
N170        N  0.62632460  0.07099611  0.14461069    -0.35200
C171        C  0.61214815  0.09355818  0.14884557     0.01000
C172        C  0.59116831  0.09818911  0.13866629     0.07000
C173        C  0.59415355  0.07747184  0.12813865    -0.06100
H174        H  0.61625670  0.10525132  0.15885871     0.07700
H175        H  0.58192895  0.07432096  0.11823236     0.08900
Cu176      Cu  0.65778983  0.05109683  0.15599701     0.44200
Cu177      Cu  0.62935257  0.02539150  0.12206345     0.42000
Cu178      Cu  0.67428193  0.98098082  0.14408262     0.43900
N179        N  0.68260103  0.02414315  0.16795801    -0.34700
N180        N  0.68787958  0.99835659  0.16396715    -0.29000
C181        C  0.70044736  0.98530767  0.17535487    -0.05100
C182        C  0.70351880  0.00384849  0.18699688     0.07100
C183        C  0.69176562  0.02817507  0.18189784     0.00900
H184        H  0.70527527  0.96345089  0.17553545     0.08600
H185        H  0.68752290  0.04655014  0.18835503     0.07700
N186        N  0.65760554  0.96964911  0.12361470    -0.36200
N187        N  0.64204504  0.98633202  0.11547397    -0.28300
C188        C  0.63338545  0.97269849  0.10332167    -0.03600
C189        C  0.64390444  0.94618870  0.10380696     0.05000
C190        C  0.65901648  0.94480678  0.11686167     0.03100
H191        H  0.61902126  0.98091197  0.09522373     0.08200
H192        H  0.66914003  0.92675432  0.12145304     0.07100
N193        N  0.30382902  0.55373480  0.90830475    -0.27300
N194        N  0.32275114  0.54601056  0.91804798    -0.35200
C195        C  0.34743275  0.55566597  0.91367597     0.01000
C196        C  0.34400956  0.57000004  0.90046617     0.07000
C197        C  0.31600344  0.56867375  0.89747889    -0.06100
H198        H  0.36607587  0.55421750  0.92025813     0.07700
H199        H  0.30514016  0.57875045  0.88844557     0.08900
Cu200      Cu  0.31365393  0.52725047  0.93814810     0.44200
Cu201      Cu  0.26230146  0.54505938  0.91105992     0.42000
Cu202      Cu  0.24177737  0.51826456  0.94732702     0.43900
N203        N  0.29947997  0.51813010  0.95928542    -0.34700
N204        N  0.27307591  0.51603676  0.96279063    -0.29000
C205        C  0.27061130  0.51386196  0.97764635    -0.05100
C206        C  0.29678369  0.51418865  0.98370334     0.07100
C207        C  0.31458202  0.51711251  0.97179634     0.00900
H208        H  0.25122516  0.51299594  0.98360079     0.08600
H209        H  0.33668871  0.52009836  0.97225134     0.07700
N210        N  0.21575457  0.52074506  0.92924081    -0.36200
N211        N  0.22309400  0.53085942  0.91613521    -0.28300
C212        C  0.20178328  0.52845106  0.90667889    -0.03600
C213        C  0.18020709  0.51595085  0.91415507     0.05000
C214        C  0.18964842  0.51148707  0.92845905     0.03100
H215        H  0.20231582  0.53437930  0.89506171     0.08200
H216        H  0.17856799  0.50201165  0.93759569     0.07100
N217        N  0.96459137  0.49242978  0.85304570    -0.27300
N218        N  0.95580698  0.47523282  0.84264557    -0.35200
C219        C  0.93254150  0.48542862  0.83662120     0.01000
C220        C  0.92628438  0.51011395  0.84363341     0.07000
C221        C  0.94721744  0.51405113  0.85386797    -0.06100
H222        H  0.92209361  0.47646978  0.82714527     0.07700
H223        H  0.95019930  0.53186138  0.86097551     0.08900
Cu224      Cu  0.97782816  0.44098541  0.83543916     0.44200
Cu225      Cu  0.00136531  0.48752905  0.86437560     0.42000
Cu226      Cu  0.04534999  0.43183215  0.85093225     0.43900
N227        N  0.00626493  0.41292656  0.82713524    -0.34700
N228        N  0.03131082  0.40979087  0.83269798    -0.29000
C229        C  0.04619786  0.39368787  0.82350672    -0.05100
C230        C  0.02974606  0.38652123  0.81150318     0.07100
C231        C  0.00450257  0.39883216  0.81429153     0.00900
H232        H  0.06779197  0.38888515  0.82508111     0.08600
H233        H  0.98693413  0.39950068  0.80686518     0.07700
N234        N  0.05666404  0.45983247  0.86724579    -0.36200
N235        N  0.04078182  0.48009216  0.87215300    -0.28300
C236        C  0.05497108  0.49521524  0.88210051    -0.03600
C237        C  0.08116773  0.48406528  0.88338753     0.05000
C238        C  0.08136944  0.46154003  0.87391931     0.03100
H239        H  0.04661731  0.51284432  0.88794369     0.08200
H240        H  0.09853097  0.44782002  0.87172265     0.07100
N241        N  0.44696088  0.57234897  0.08742850    -0.27300
N242        N  0.42841752  0.58570787  0.07934127    -0.35200
C243        C  0.43820520  0.61088061  0.07585021     0.01000
C244        C  0.46414498  0.61361946  0.08199436     0.07000
C245        C  0.46924906  0.58870503  0.08911678    -0.06100
H246        H  0.42808592  0.62526947  0.06838749     0.07700
H247        H  0.48823162  0.58246322  0.09450708     0.08900
Cu248      Cu  0.39293821  0.56815393  0.07083556     0.44200
Cu249      Cu  0.44194011  0.53167211  0.09460800     0.42000
Cu250      Cu  0.38112047  0.49744651  0.07969819     0.43900
N251        N  0.36265825  0.54479768  0.06069684    -0.34700
N252        N  0.35824243  0.51857523  0.06405978    -0.29000
C253        C  0.34066964  0.50769049  0.05412059    -0.05100
C254        C  0.33363056  0.52807738  0.04396698     0.07100
C255        C  0.34811140  0.55132243  0.04845538     0.00900
H256        H  0.33547155  0.48594544  0.05350702     0.08600
H257        H  0.35047745  0.57050056  0.04236485     0.07700
N258        N  0.40845894  0.47900878  0.09421161    -0.36200
N259        N  0.43057184  0.49123182  0.09978517    -0.28300
C260        C  0.44338818  0.47336138  0.10898941    -0.03600
C261        C  0.42882419  0.44868446  0.10896908     0.05000
C262        C  0.40668387  0.45313757  0.09959744     0.03100
H263        H  0.46194181  0.47795025  0.11521631     0.08200
H264        H  0.38999854  0.43898659  0.09716638     0.07100
N265        N  0.49073179  0.22715579  0.14870102    -0.27300
N266        N  0.47814660  0.20888260  0.15730282    -0.35200
C267        C  0.49037268  0.18412086  0.15573500     0.01000
C268        C  0.51197941  0.18685187  0.14579282     0.07000
C269        C  0.51140578  0.21441969  0.14139483    -0.06100
H270        H  0.48504159  0.16584704  0.16209912     0.07700
H271        H  0.52525139  0.22468322  0.13374121     0.08900
Cu272      Cu  0.44797731  0.21906565  0.17259890     0.44200
Cu273      Cu  0.48015951  0.26888960  0.14854899     0.42000
Cu274      Cu  0.42895475  0.29026668  0.17655440     0.43900
N275        N  0.42461998  0.23369185  0.19014834    -0.34700
N276        N  0.41794046  0.25998502  0.19187003    -0.29000
C277        C  0.40680081  0.26335455  0.20547701    -0.05100
C278        C  0.40630549  0.23786457  0.21262792     0.07100
C279        C  0.41795327  0.21965301  0.20255288     0.00900
H280        H  0.40133736  0.28317297  0.21021613     0.08600
H281        H  0.42353209  0.19830440  0.20461077     0.07700
N282        N  0.44456275  0.31592007  0.16000016    -0.36200
N283        N  0.46327951  0.30837206  0.15008056    -0.28300
C284        C  0.46731240  0.32937054  0.14048156    -0.03600
C285        C  0.45047937  0.35123645  0.14455064     0.05000
C286        C  0.43619919  0.34184938  0.15691839     0.03100
H287        H  0.48061201  0.32834640  0.13082053     0.08200
H288        H  0.41957328  0.35221364  0.16266531     0.07100
N289        N  0.02926783  0.36079958  0.67499116    -0.27300
N290        N  0.03213226  0.37842145  0.68609388    -0.35200
C291        C  0.02080333  0.40272307  0.68227721     0.01000
C292        C  0.01000167  0.40028588  0.66812814     0.07000
C293        C  0.01579203  0.37342814  0.66375316    -0.06100
H294        H  0.01951620  0.42054878  0.68951239     0.07700
H295        H  0.01066970  0.36377686  0.65326572     0.08900
Cu296      Cu  0.04753791  0.36765535  0.70667582     0.44200
Cu297      Cu  0.04396803  0.32065830  0.67638530     0.42000
Cu298      Cu  0.06346149  0.29605552  0.71376840     0.43900
N299        N  0.05198424  0.35140428  0.72776468    -0.34700
N300        N  0.05609440  0.32487933  0.73065309    -0.29000
C301        C  0.05498173  0.32105716  0.74553022    -0.05100
C302        C  0.05009246  0.34649668  0.75218030     0.07100
C303        C  0.04849347  0.36517288  0.74057749     0.00900
H304        H  0.05781237  0.30136179  0.75106532     0.08600
H305        H  0.04423375  0.38710721  0.74136619     0.07700
N306        N  0.07188824  0.27481274  0.69399243    -0.36200
N307        N  0.06424843  0.28374660  0.68066745    -0.28300
C308        C  0.07288851  0.26574408  0.67030330    -0.03600
C309        C  0.08692785  0.24456584  0.67730534     0.05000
C310        C  0.08587472  0.25086044  0.69234571     0.03100
H311        H  0.06951407  0.26810534  0.65846130     0.08200
H312        H  0.09435296  0.23881598  0.70142036     0.07100
N313        N  0.13993930  0.03519472  0.61469466    -0.27300
N314        N  0.15493802  0.02932266  0.60283044    -0.35200
C315        C  0.14777091  0.00421204  0.59772234     0.01000
C316        C  0.12724405  0.99351921  0.60676993     0.07000
C317        C  0.12268514  0.01388448  0.61737190    -0.06100
H318        H  0.15470195  0.99584702  0.58720770     0.07700
H319        H  0.10646593  0.01412701  0.62565505     0.08900
Cu320      Cu  0.17874808  0.05817232  0.59164405     0.44200
Cu321      Cu  0.14015894  0.07412443  0.62469754     0.42000
Cu322      Cu  0.17542660  0.12901794  0.60379021     0.43900
N323        N  0.19302066  0.09102554  0.57899614    -0.34700
N324        N  0.19160457  0.11714721  0.58323285    -0.29000
C325        C  0.19885981  0.13340162  0.57166359    -0.05100
C326        C  0.20531972  0.11668533  0.55958155     0.07100
C327        C  0.20103138  0.08994919  0.56468921     0.00900
H328        H  0.19792784  0.15576979  0.57175418     0.08600
H329        H  0.20102418  0.07119187  0.55817128     0.07700
N330        N  0.15456679  0.13525725  0.62384368    -0.36200
N331        N  0.14151460  0.11549805  0.63128004    -0.28300
C332        C  0.12835683  0.12687440  0.64297282    -0.03600
C333        C  0.13341999  0.15507245  0.64293141     0.05000
C334        C  0.15018411  0.15963210  0.63070190     0.03100
H335        H  0.11546082  0.11554770  0.65070165     0.08200
H336        H  0.15755801  0.17942135  0.62667742     0.07100
N337        N  0.46601256  0.11837527  0.32889276    -0.27300
N338        N  0.47591207  0.13166501  0.31718466    -0.35200
C339        C  0.50130629  0.12225748  0.31410529     0.01000
C340        C  0.50769408  0.10186243  0.32427523     0.07000
C341        C  0.48491500  0.09979390  0.33353151    -0.06100
H342        H  0.51399199  0.12941107  0.30496203     0.07700
H343        H  0.48240488  0.08612002  0.34298295     0.08900
Cu344      Cu  0.45427508  0.16101117  0.30537782     0.44200
Cu345      Cu  0.42774366  0.12799864  0.33798161     0.42000
Cu346      Cu  0.38835297  0.18308130  0.31853733     0.43900
N347        N  0.42871219  0.18644272  0.29323283    -0.34700
N348        N  0.40399347  0.19441576  0.29772001    -0.29000
C349        C  0.39173187  0.20846743  0.28653113    -0.05100
C350        C  0.40991025  0.20946870  0.27462665     0.07100
C351        C  0.43298785  0.19519948  0.27923985     0.00900
H352        H  0.37088853  0.21644904  0.28683870     0.08600
H353        H  0.45103648  0.19034956  0.27265164     0.07700
N354        N  0.37787176  0.16610437  0.33921444    -0.36200
N355        N  0.39153688  0.14585955  0.34588558    -0.28300
C356        C  0.37885233  0.13963994  0.35878144    -0.03600
C357        C  0.35598828  0.15659194  0.36040152     0.05000
C358        C  0.35627954  0.17333635  0.34780563     0.03100
H359        H  0.38574060  0.12374335  0.36642798     0.08200
H360        H  0.34235233  0.19003197  0.34511535     0.07100
N361        N  0.16396477  0.09560049  0.42728496    -0.27300
N362        N  0.15017296  0.10192883  0.43947184    -0.35200
C363        C  0.12459147  0.09127481  0.43850561     0.01000
C364        C  0.12230747  0.07738255  0.42507883     0.07000
C365        C  0.14762529  0.08085734  0.41818310    -0.06100
H366        H  0.10900046  0.09297244  0.44707486     0.07700
H367        H  0.15370545  0.07379332  0.40727239     0.08900
Cu368      Cu  0.16814120  0.12329380  0.45693818     0.44200
Cu369      Cu  0.20417037  0.10786168  0.42369611     0.42000
Cu370      Cu  0.24037701  0.14568865  0.45247436     0.43900
N371        N  0.19292330  0.13734377  0.47413574    -0.34700
N372        N  0.21928602  0.14419624  0.47286771    -0.29000
C373        C  0.22981982  0.14768563  0.48665004    -0.05100
C374        C  0.20893530  0.14335847  0.49696372     0.07100
C375        C  0.18596883  0.13674357  0.48860657     0.00900
H376        H  0.25129472  0.15191161  0.48901653     0.08600
H377        H  0.16614250  0.12999050  0.49279902     0.07700
N378        N  0.25538440  0.14102368  0.43071752    -0.36200
N379        N  0.24209702  0.12633458  0.42059958    -0.28300
C380        C  0.25615003  0.12698397  0.40775247    -0.03600
C381        C  0.27962800  0.14280943  0.40966488     0.05000
C382        C  0.27843146  0.15156393  0.42441129     0.03100
H383        H  0.24947670  0.11692634  0.39762051     0.08200
H384        H  0.29260242  0.16528625  0.43003040     0.07100
C385        C  0.34642108  0.15104138  0.38747272    -0.20300
C386        C  0.33610879  0.15619328  0.37308485    -0.06900
C387        C  0.30718077  0.15841585  0.37110167     0.14000
C388        C  0.28963696  0.15513011  0.38342979    -0.20400
C389        C  0.29991390  0.14952744  0.39774301    -0.06900
C390        C  0.32878287  0.14764635  0.39979709     0.13900
C391        C  0.34116529  0.14057252  0.41470477    -0.23800
H392        H  0.36851509  0.14919641  0.38905544     0.15200
H393        H  0.26750664  0.15646111  0.38181954     0.15300
C394        C  0.29426627  0.16266083  0.35600541    -0.23700
H395        H  0.36389550  0.13791051  0.41400191     0.05500
H396        H  0.33223134  0.12090184  0.41893672     0.08700
H397        H  0.33713465  0.15747990  0.42272287     0.08700
H398        H  0.30206066  0.14691552  0.34806692     0.08700
H399        H  0.29881833  0.18377893  0.35186989     0.08700
H400        H  0.27143927  0.16067416  0.35642614     0.05500
C401        C  0.19250302  0.14682119  0.53821831    -0.20300
C402        C  0.20924388  0.12549240  0.54383502    -0.06900
C403        C  0.22851486  0.11264422  0.53418749     0.14000
C404        C  0.22929134  0.12035408  0.51907582    -0.20400
C405        C  0.21116375  0.14030995  0.51332306    -0.06900
C406        C  0.19317778  0.15435783  0.52312730     0.13900
C407        C  0.17448550  0.17747228  0.51807559    -0.23800
H408        H  0.17804929  0.15715889  0.54554871     0.15200
H409        H  0.24321356  0.10976889  0.51155137     0.15300
C410        C  0.24860533  0.09111675  0.53968879    -0.23700
H411        H  0.17892248  0.19635228  0.52468713     0.05500
H412        H  0.15262630  0.17141874  0.51986186     0.08700
H413        H  0.17729277  0.18293158  0.50618648     0.08700
H414        H  0.23760876  0.07191975  0.54287694     0.08700
H415        H  0.26024122  0.09925212  0.54938256     0.08700
H416        H  0.26378975  0.08541813  0.53095448     0.05500
C417        C  0.08181240  0.20368275  0.66106539    -0.20300
C418        C  0.09912196  0.22014364  0.66988071    -0.06900
C419        C  0.12773307  0.21450692  0.67025275     0.14000
C420        C  0.13838336  0.19283801  0.66151155    -0.20400
C421        C  0.12101426  0.17643010  0.65266042    -0.06900
C422        C  0.09233688  0.18175982  0.65255409     0.13900
C423        C  0.07289848  0.16517228  0.64299291    -0.23800
H424        H  0.05992457  0.20828358  0.66069870     0.15200
H425        H  0.16038913  0.18881541  0.66146495     0.15300
C426        C  0.14716347  0.23200596  0.67932492    -0.23700
H427        H  0.05135440  0.17287179  0.64380696     0.05500
H428        H  0.07296133  0.14320744  0.64660536     0.08700
H429        H  0.07937813  0.16652995  0.63115926     0.08700
H430        H  0.14180257  0.23035738  0.69129908     0.08700
H431        H  0.14566054  0.25396700  0.67574501     0.08700
H432        H  0.16893743  0.22527591  0.67798323     0.05500
C433        C  0.41420123  0.25096895  0.23893596    -0.20300
C434        C  0.40228115  0.23246830  0.22873416    -0.06900
C435        C  0.38998301  0.20776110  0.23411487     0.14000
C436        C  0.39157067  0.20144162  0.24934641    -0.20400
C437        C  0.40484054  0.21924069  0.25932690    -0.06900
C438        C  0.41593516  0.24444891  0.25414217     0.13900
C439        C  0.43042890  0.26398560  0.26458428    -0.23800
H440        H  0.42372967  0.26984061  0.23489277     0.15200
H441        H  0.38308050  0.18206285  0.25340175     0.15300
C442        C  0.37498158  0.18761140  0.22420425    -0.23700
H443        H  0.43783663  0.28286545  0.25873975     0.05500
H444        H  0.44855176  0.25353496  0.26965007     0.08700
H445        H  0.41602347  0.27045670  0.27353264     0.08700
H446        H  0.38625260  0.16760709  0.22400868     0.08700
H447        H  0.37255818  0.19521876  0.21264382     0.08700
H448        H  0.35389521  0.18400015  0.22864830     0.05500
C449        C  0.44183125  0.37403136  0.12032039    -0.20300
C450        C  0.44516500  0.37666519  0.13577017    -0.06900
C451        C  0.44374871  0.40324742  0.14230964     0.14000
C452        C  0.43872584  0.42639470  0.13321646    -0.20400
C453        C  0.43462749  0.42358363  0.11784445    -0.06900
C454        C  0.43638393  0.39708265  0.11127911     0.13900
C455        C  0.43350154  0.39299110  0.09471831    -0.23800
H456        H  0.44310173  0.35368975  0.11530422     0.15200
H457        H  0.43759809  0.44681275  0.13815791     0.15300
C458        C  0.44844114  0.40757946  0.15871910    -0.23700
H459        H  0.43752047  0.37119871  0.09145619     0.05500
H460        H  0.44851434  0.40635040  0.08873346     0.08700
H461        H  0.41225903  0.39811738  0.09109152     0.08700
H462        H  0.46864802  0.39865428  0.16202071     0.08700
H463        H  0.43170484  0.39771308  0.16523933     0.08700
H464        H  0.44859435  0.42990608  0.16164640     0.05500
C465        C  0.02158157  0.35232596  0.79147749    -0.20300
C466        C  0.03803623  0.37370699  0.79722468    -0.06900
C467        C  0.05965466  0.38467876  0.78839876     0.14000
C468        C  0.06374906  0.37440937  0.77396487    -0.20400
C469        C  0.04701065  0.35338455  0.76813362    -0.06900
C470        C  0.02584484  0.34195034  0.77704952     0.13900
C471        C  0.00669565  0.32004812  0.77110269    -0.23800
H472        H  0.00476806  0.34428122  0.79817633     0.15200
H473        H  0.07971669  0.38334968  0.76699365     0.15300
C474        C  0.07743282  0.40830558  0.79369158    -0.23700
H475        H  0.99060715  0.31427986  0.77935652     0.05500
H476        H  0.01856027  0.30110534  0.76837096     0.08700
H477        H  0.99615612  0.32779707  0.76094180     0.08700
H478        H  0.09003890  0.40161666  0.80333929     0.08700
H479        H  0.06428120  0.42614786  0.79688114     0.08700
H480        H  0.09192442  0.41546382  0.78490746     0.05500
C481        C  0.29335820  0.53758341  0.00806090    -0.20300
C482        C  0.30415457  0.51585645  0.99953765    -0.06900
C483        C  0.32264184  0.49685747  0.00605474     0.14000
C484        C  0.33100134  0.50083368  0.02080202    -0.20400
C485        C  0.32153925  0.52351246  0.02910382    -0.06900
C486        C  0.30195528  0.54176779  0.02279907     0.13900
C487        C  0.28967785  0.56525753  0.03159865    -0.23800
H488        H  0.27881977  0.55182741  0.00300270     0.15200
H489        H  0.34579409  0.48666858  0.02569624     0.15300
C490        C  0.33328316  0.47219220  0.99756484    -0.23700
H491        H  0.27347736  0.57632671  0.02517860     0.05500
H492        H  0.30580345  0.58057624  0.03450080     0.08700
H493        H  0.28009995  0.55708887  0.04194185     0.08700
H494        H  0.34580056  0.47910735  0.98791771     0.08700
H495        H  0.31565071  0.45955225  0.99355885     0.08700
H496        H  0.34654421  0.45876856  0.00461949     0.05500
C497        C  0.13796574  0.52819037  0.90037495    -0.20300
C498        C  0.15350930  0.50786466  0.90769315    -0.06900
C499        C  0.14447865  0.48008048  0.90760408     0.14000
C500        C  0.12012764  0.47332199  0.90004604    -0.20400
C501        C  0.10462831  0.49355532  0.89256391    -0.06900
C502        C  0.11352535  0.52147446  0.89283846     0.13900
C503        C  0.09841345  0.54406938  0.88461487    -0.23800
H504        H  0.14528410  0.54940731  0.90038024     0.15200
H505        H  0.11339973  0.45192458  0.89970569     0.15300
C506        C  0.16115420  0.45724241  0.91468531    -0.23700
H507        H  0.10972833  0.56405472  0.88507342     0.05500
H508        H  0.07791730  0.54754188  0.88973835     0.08700
H509        H  0.09598012  0.53837495  0.87272286     0.08700
H510        H  0.16227335  0.46033996  0.92688858     0.08700
H511        H  0.18231228  0.45705152  0.90993660     0.08700
H512        H  0.15179234  0.43657874  0.91271963     0.05500
C513        C  0.57982609  0.14755716  0.14262907    -0.20300
C514        C  0.57049041  0.12082238  0.13921601    -0.06900
C515        C  0.54180904  0.11616093  0.13750656     0.14000
C516        C  0.52340323  0.13843876  0.13913834    -0.20400
C517        C  0.53279439  0.16521666  0.14247328    -0.06900
C518        C  0.56144154  0.16978821  0.14430120     0.13900
C519        C  0.57279017  0.19755913  0.14884498    -0.23800
H520        H  0.60175110  0.15100683  0.14417139     0.15200
H521        H  0.50139744  0.13484502  0.13809457     0.15300
C522        C  0.53022409  0.08762814  0.13487431    -0.23700
H523        H  0.59534523  0.19665487  0.15099650     0.05500
H524        H  0.56257678  0.20465834  0.15922060     0.08700
H525        H  0.56947879  0.21288209  0.13983223     0.08700
H526        H  0.53763506  0.07320032  0.14364184     0.08700
H527        H  0.53651477  0.08000036  0.12376859     0.08700
H528        H  0.50730388  0.08757269  0.13516304     0.05500
C529        C  0.49685809  0.68405989  0.07638347    -0.20300
C530        C  0.51911566  0.67726412  0.06710021    -0.06900
C531        C  0.52478201  0.64914340  0.06399550     0.14000
C532        C  0.50733736  0.62859424  0.06980366    -0.20400
C533        C  0.48410585  0.63557607  0.07828880    -0.06900
C534        C  0.47901985  0.66354697  0.08184867     0.13900
C535        C  0.45481518  0.67177399  0.09138930    -0.23800
H536        H  0.49270316  0.70562087  0.07883046     0.15200
H537        H  0.51112132  0.60704267  0.06715886     0.15300
C538        C  0.54926162  0.64063605  0.05471959    -0.23700
H539        H  0.45442079  0.69442992  0.09345772     0.05500
H540        H  0.45608101  0.66104812  0.10231028     0.08700
H541        H  0.43520233  0.66608177  0.08581482     0.08700
H542        H  0.56847612  0.64917566  0.05963146     0.08700
H543        H  0.54695775  0.64827319  0.04315148     0.08700
H544        H  0.55139197  0.61776617  0.05419398     0.05500
C545        C  0.64892845  0.91923356  0.08051151    -0.20300
C546        C  0.63542338  0.92311181  0.09412497    -0.06900
C547        C  0.61274235  0.90624184  0.09786964     0.14000
C548        C  0.60377968  0.88603785  0.08778667    -0.20400
C549        C  0.61692139  0.88216018  0.07397650    -0.06900
C550        C  0.64010993  0.89886443  0.07038470     0.13900
C551        C  0.65628907  0.89498612  0.05622825    -0.23800
H552        H  0.66634209  0.93238293  0.07775911     0.15200
H553        H  0.58610288  0.87337620  0.09067562     0.15300
C554        C  0.59776379  0.90980943  0.11244274    -0.23700
H555        H  0.67541937  0.90766664  0.05616465     0.05500
H556        H  0.64383061  0.90166522  0.04653875     0.08700
H557        H  0.66242542  0.87296789  0.05501697     0.08700
H558        H  0.58930098  0.93111103  0.11320157     0.08700
H559        H  0.61224270  0.90623665  0.12182732     0.08700
H560        H  0.58035213  0.89499956  0.11359909     0.05500
C561        C  0.10020805  0.92351564  0.59380071    -0.20300
C562        C  0.07207397  0.92944744  0.59187383    -0.06900
C563        C  0.06181927  0.95552405  0.59641199     0.14000
C564        C  0.08020737  0.97551996  0.60189011    -0.20400
C565        C  0.10861595  0.97026647  0.60286989    -0.10100
C566        C  0.11865666  0.94365889  0.59917592     0.13900
C567        C  0.14863060  0.93622698  0.60117762    -0.23800
H568        H  0.10791953  0.90329672  0.59065947     0.15200
H569        H  0.07245228  0.99577806  0.60492244     0.15300
C570        C  0.03145559  0.96225509  0.59587032    -0.23700
H571        H  0.15256282  0.91412444  0.59854512     0.05500
H572        H  0.15484078  0.93984976  0.61290864     0.08700
H573        H  0.16174606  0.94888348  0.59369525     0.08700
H574        H  0.01961535  0.94631884  0.60210104     0.08700
H575        H  0.02415907  0.96311150  0.58420080     0.08700
H576        H  0.02696977  0.98269054  0.60096575     0.05500
C577        C  0.95217731  0.44184154  0.65051110    -0.20300
C578        C  0.96430111  0.46819316  0.65001276    -0.06900
C579        C  0.99222602  0.47146646  0.65421384     0.14000
C580        C  0.00701888  0.44839488  0.65927578    -0.20400
C581        C  0.99472117  0.42218729  0.66017825    -0.06900
C582        C  0.96712738  0.41867108  0.65544608     0.13900
C583        C  0.95288940  0.39099691  0.65636258    -0.23800
H584        H  0.93069327  0.43955535  0.64737313     0.15200
H585        H  0.02812297  0.45096036  0.66304538     0.15300
C586        C  0.00608930  0.49941086  0.65430170    -0.23700
H587        H  0.93095795  0.39235077  0.65283659     0.05500
H588        H  0.95338847  0.38318588  0.66799135     0.08700
H589        H  0.96333546  0.37599834  0.64893042     0.08700
H590        H  0.99418771  0.51399087  0.66135675     0.08700
H591        H  0.00752524  0.50764846  0.64280454     0.08700
H592        H  0.02740995  0.49825408  0.65880246     0.05500
C593        C  0.97571784  0.67905124  0.60064300    -0.20300
C594        C  0.94699427  0.67524236  0.60089890    -0.06900
C595        C  0.92980277  0.69462754  0.59360332     0.14000
C596        C  0.94159861  0.71829471  0.58725153    -0.20400
C597        C  0.97021420  0.72282448  0.58751793    -0.06900
C598        C  0.98759144  0.70259250  0.59398731     0.13900
C599        C  0.01855197  0.70525810  0.59357860    -0.23800
H600        H  0.98887869  0.66394294  0.60606137     0.15200
H601        H  0.92818676  0.73337554  0.58198375     0.15300
C602        C  0.89908508  0.69070970  0.59181780    -0.23700
H603        H  0.02884333  0.68661198  0.59823592     0.05500
H604        H  0.02525130  0.72324850  0.60029018     0.08700
H605        H  0.02560341  0.70786858  0.58189967     0.08700
H606        H  0.88795758  0.70717309  0.59798318     0.08700
H607        H  0.89172241  0.67025757  0.59573062     0.08700
H608        H  0.89359781  0.69219380  0.57983976     0.05500
C609        C  0.85754836  0.54248885  0.83305889    -0.20300
C610        C  0.86582691  0.56934666  0.82908927    -0.06900
C611        C  0.89375563  0.57720480  0.83100452     0.14000
C612        C  0.91284982  0.55756886  0.83615986    -0.20400
C613        C  0.90482378  0.53027681  0.83928319    -0.06900
C614        C  0.87673254  0.52278902  0.83806028     0.13900
C615        C  0.86676673  0.49431212  0.84234353    -0.23800
H616        H  0.83608926  0.53661003  0.83178439     0.15200
H617        H  0.93435146  0.56335211  0.83738316     0.15300
C618        C  0.90350202  0.60635885  0.82805190    -0.23700
H619        H  0.84394996  0.49262836  0.84158199     0.05500
H620        H  0.87287113  0.48966879  0.85399665     0.08700
H621        H  0.87569391  0.47855626  0.83480934     0.08700
H622        H  0.89080187  0.62120350  0.83451562     0.08700
H623        H  0.90208890  0.61132078  0.81604288     0.08700
H624        H  0.92539349  0.60925363  0.83137452     0.05500
C625        C  0.83532706  0.64273391  0.70342314    -0.20300
C626        C  0.82374812  0.61939872  0.69653351    -0.06900
C627        C  0.80097725  0.60595943  0.70326285     0.14000
C628        C  0.79176028  0.61497518  0.71722737    -0.20400
C629        C  0.80456742  0.63715928  0.72451061    -0.06900
C630        C  0.82604210  0.65176360  0.71735432     0.13900
C631        C  0.83905374  0.67697377  0.72430695    -0.23800
H632        H  0.85249235  0.65331493  0.69816123     0.15200
H633        H  0.77500198  0.60403561  0.72267087     0.15300
C634        C  0.78563470  0.58243934  0.69601045    -0.23700
H635        H  0.85458690  0.68661437  0.71682106     0.05500
H636        H  0.84969234  0.67133006  0.73480104     0.08700
H637        H  0.82288575  0.69263638  0.72667587     0.08700
H638        H  0.78780730  0.56344411  0.70288876     0.08700
H639        H  0.79292586  0.57794011  0.68459197     0.08700
H640        H  0.76340526  0.58781273  0.69517320     0.05500
C641        C  0.35864306  0.61598955  0.89113465    -0.20300
C642        C  0.36481980  0.58790553  0.89325337    -0.06900
C643        C  0.39130196  0.57794346  0.88944766     0.14000
C644        C  0.41173657  0.59677904  0.88493318    -0.20400
C645        C  0.40627431  0.62526013  0.88416131    -0.06900
C646        C  0.37905534  0.63483890  0.88660591     0.13900
C647        C  0.37123654  0.66471068  0.88416995    -0.23800
H648        H  0.33806282  0.62342528  0.89365194     0.15200
H649        H  0.43239428  0.58935678  0.88260402     0.15300
C650        C  0.39795546  0.54747694  0.88988376    -0.23700
H651        H  0.34867732  0.66798437  0.88547976     0.05500
H652        H  0.37703365  0.67114549  0.87271580     0.08700
H653        H  0.38173406  0.67820551  0.89234461     0.08700
H654        H  0.38307843  0.53597809  0.88281318     0.08700
H655        H  0.39687425  0.53951513  0.90143985     0.08700
H656        H  0.41906214  0.54324371  0.88563964     0.05500
C657        C  0.53363387  0.79400495  0.94196420    -0.20300
C658        C  0.54597926  0.77126865  0.93493631    -0.06900
C659        C  0.56623259  0.75575041  0.94256103     0.14000
C660        C  0.57267277  0.76254179  0.95732194    -0.20400
C661        C  0.55943777  0.78448262  0.96462422    -0.06900
C662        C  0.54023131  0.80091379  0.95674334     0.13900
C663        C  0.52541426  0.82454552  0.96415341    -0.23800
H664        H  0.51797941  0.80569198  0.93605401     0.15200
H665        H  0.58724187  0.74986516  0.96345363     0.15300
C666        C  0.57989291  0.73105029  0.93547329    -0.23700
H667        H  0.51052032  0.83469332  0.95649140     0.05500
H668        H  0.54057755  0.84037951  0.96776323     0.08700
H669        H  0.51381054  0.81684084  0.97398333     0.08700
H670        H  0.59148691  0.73768176  0.92542785     0.08700
H671        H  0.56403806  0.71557534  0.93226162     0.08700
H672        H  0.59467376  0.72083291  0.94317273     0.05500
C673        C  0.60704793  0.66885536  0.81993841    -0.20300
C674        C  0.60953014  0.67956249  0.83439257    -0.06900
C675        C  0.63602445  0.68110550  0.84100685     0.14000
C676        C  0.65913776  0.67236853  0.83292249    -0.20400
C677        C  0.65681490  0.66172308  0.81846401    -0.06900
C678        C  0.63031289  0.66002440  0.81183768     0.13900
C679        C  0.62604625  0.64792227  0.79657204    -0.23800
H680        H  0.58671370  0.66732801  0.81497488     0.15200
H681        H  0.67934030  0.67372112  0.83804261     0.15300
C682        C  0.64028593  0.69035789  0.85686941    -0.23700
H683        H  0.60378295  0.64577724  0.79385831     0.05500
H684        H  0.63551844  0.62703623  0.79596121     0.08700
H685        H  0.63520471  0.66167631  0.78802009     0.08700
H686        H  0.62643882  0.67860695  0.86443991     0.08700
H687        H  0.63643161  0.71284874  0.85788224     0.08700
H688        H  0.66181288  0.68676506  0.86065570     0.05500
C689        C  0.07520314  0.02086417  0.41008533    -0.20300
C690        C  0.04922348  0.03321317  0.41179739    -0.06900
C691        C  0.04746802  0.06050633  0.41735820     0.14000
C692        C  0.07180404  0.07460159  0.42116806    -0.20400
C693        C  0.09781227  0.06216342  0.41957816    -0.06900
C694        C  0.09954088  0.03492043  0.41387664     0.13900
C695        C  0.12663446  0.01978409  0.41258792    -0.23800
H696        H  0.07637315  0.99975132  0.40606539     0.15200
H697        H  0.07051268  0.09535942  0.42567051     0.15300
C698        C  0.02007846  0.07432347  0.42013470    -0.23700
H699        H  0.12365118  0.99784587  0.40927867     0.05500
H700        H  0.13751327  0.01991802  0.42346363     0.08700
H701        H  0.13969994  0.02959051  0.40394529     0.08700
H702        H  0.00732873  0.06132667  0.42768053     0.08700
H703        H  0.00906609  0.07752490  0.40945995     0.08700
H704        H  0.02262693  0.09493020  0.42541797     0.05500
C705        C  0.91795458  0.90062850  0.47967226    -0.20300
C706        C  0.93303143  0.88665010  0.46867127    -0.06900
C707        C  0.94971413  0.86385564  0.47270865     0.14000
C708        C  0.95237101  0.85678810  0.48777836    -0.20400
C709        C  0.93919422  0.87228595  0.49886834    -0.06900
C710        C  0.92105235  0.89385198  0.49478793     0.13900
C711        C  0.90504261  0.90969949  0.50633596    -0.23800
H712        H  0.90491290  0.91789053  0.47650873     0.15200
H713        H  0.96589537  0.83992204  0.49097770     0.15300
C714        C  0.96471814  0.84692049  0.46118974    -0.23700
H715        H  0.89114998  0.92527865  0.50117058     0.05500
H716        H  0.91939593  0.92078409  0.51386771     0.08700
H717        H  0.89218188  0.89515773  0.51295392     0.08700
H718        H  0.98041891  0.85968978  0.45540563     0.08700
H719        H  0.94973539  0.83880595  0.45293112     0.08700
H720        H  0.97558003  0.82900630  0.46628150     0.05500
C721        C  0.55952866  0.04404431  0.31940351    -0.20300
C722        C  0.58445689  0.05834628  0.32141147    -0.06900
C723        C  0.58390743  0.08667786  0.32536303     0.14000
C724        C  0.55836565  0.10009437  0.32679020    -0.20400
C725        C  0.53351584  0.08582328  0.32459828    -0.06900
C726        C  0.53402202  0.05741278  0.32104687     0.13900
C727        C  0.50777283  0.04152829  0.31828365    -0.23800
H728        H  0.56006343  0.02239567  0.31626432     0.15200
H729        H  0.55773254  0.12202233  0.32931509     0.15300
C730        C  0.61000743  0.10327910  0.32728255    -0.23700
H731        H  0.51197476  0.01967547  0.31521160     0.05500
H732        H  0.49606522  0.05129574  0.30903827     0.08700
H733        H  0.49490149  0.04147701  0.32849879     0.08700
H734        H  0.62280567  0.10193215  0.31705834     0.08700
H735        H  0.62186046  0.09539276  0.33694785     0.08700
H736        H  0.60556121  0.12548385  0.32938331     0.05500
C737        C  0.72886973  0.00871479  0.22697694    -0.20300
C738        C  0.71364496  0.98729127  0.23362534    -0.06900
C739        C  0.69813218  0.96918261  0.22454208     0.14000
C740        C  0.69635234  0.97437666  0.20922697    -0.20400
C741        C  0.70972561  0.99714711  0.20272885    -0.06900
C742        C  0.72701667  0.01396101  0.21161345     0.13900
C743        C  0.74362130  0.03730717  0.20497487    -0.23800
H744        H  0.74103870  0.02235036  0.23394568     0.15200
H745        H  0.68349361  0.96110136  0.20241242     0.15300
C746        C  0.68317329  0.94422104  0.23061102    -0.23700
H747        H  0.75719657  0.04719041  0.21339136     0.05500
H748        H  0.72978912  0.05355742  0.20049321     0.08700
H749        H  0.75690136  0.02925134  0.19589471     0.08700
H750        H  0.66062113  0.94672650  0.22889191     0.08700
H751        H  0.68709508  0.94067688  0.24261310     0.08700
H752        H  0.69019564  0.92542303  0.22461462     0.05500
C753        C  0.82854460  0.96637214  0.36299402    -0.20300
C754        C  0.83758416  0.98958216  0.37097455    -0.06900
C755        C  0.82525227  0.01562129  0.36832885     0.14000
C756        C  0.80451031  0.01790105  0.35749849    -0.20400
C757        C  0.79622407  0.99489910  0.34912579    -0.06900
C758        C  0.80811454  0.96874594  0.35199806     0.13900
C759        C  0.79876443  0.94321524  0.34382036    -0.23800
H760        H  0.83785855  0.94638716  0.36521527     0.15200
H761        H  0.79487659  0.03779108  0.35543012     0.15300
C762        C  0.83326295  0.04080608  0.37720314    -0.23700
H763        H  0.80940665  0.92433674  0.34794118     0.05500
H764        H  0.80336558  0.94530244  0.33178033     0.08700
H765        H  0.77622132  0.94027021  0.34539206     0.08700
H766        H  0.85516913  0.04616260  0.37510251     0.08700
H767        H  0.83025869  0.03664666  0.38925544     0.08700
H768        H  0.82057094  0.05910212  0.37415780     0.05500
loop_ 
_geom_bond_atom_site_label_1 
_geom_bond_atom_site_label_2 
_geom_bond_distance 
_geom_bond_site_symmetry_2 
_ccdc_geom_bond_type 
N1            N2   1.320       .  A
N1            C5   1.345       .  A
N1           Cu9   2.064       .  S
N2            C3   1.343       .  A
N2           Cu8   2.067       .  S
C3            C4   1.383       .  A
C3            H6   1.082       .  S
C4            C5   1.384       .  A
C4          C722   1.477       .  S
C5            H7   1.081       .  S
Cu8          N11   2.067   1_545  S
Cu9          N19   2.065       .  S
Cu10         N12   2.080       .  S
Cu10         N18   2.081       .  S
N11          N12   1.322       .  A
N11          C15   1.342       .  A
N12          C13   1.348       .  A
C13          C14   1.385       .  A
C13          H16   1.082       .  S
C14          C15   1.381       .  A
C14         C738   1.477       .  S
C15          H17   1.082       .  S
N18          N19   1.323   1_565  A
N18          C22   1.346       .  A
N19          C20   1.343       .  A
C20          C21   1.379   1_545  A
C20          H23   1.082       .  S
C21          C22   1.384       .  A
C21         C757   1.474       .  S
C22          H24   1.082       .  S
N25          N26   1.320   1_545  A
N25          C29   1.347   1_655  A
N25         Cu33   2.075   1_545  S
N26          C27   1.341   1_655  A
N26         Cu32   2.060       .  S
C27          C28   1.381   1_565  A
C27          H30   1.082       .  S
C28          C29   1.387       .  A
C28         C690   1.478       .  S
C29          H31   1.081   1_455  S
Cu32         N35   2.060       .  S
Cu33         N43   2.076       .  S
Cu34         N36   2.075       .  S
Cu34         N42   2.076       .  S
N35          N36   1.320       .  A
N35          C39   1.340       .  A
N36          C37   1.348       .  A
C37          C38   1.386       .  A
C37          H40   1.082       .  S
C38          C39   1.381       .  A
C38         C706   1.475       .  S
C39          H41   1.082       .  S
N42          N43   1.324       .  A
N42          C46   1.345       .  A
N43          C44   1.344       .  A
C44          C45   1.382       .  A
C44          H47   1.081   1_565  S
C45          C46   1.382       .  A
C45         C754   1.475       .  S
C46          H48   1.082       .  S
N49          N50   1.323       .  A
N49          C53   1.347       .  A
N49         Cu57   2.084       .  S
N50          C51   1.342       .  A
N50         Cu56   2.071       .  S
C51          C52   1.382       .  A
C51          H54   1.082       .  S
C52          C53   1.386       .  A
C52         C645   1.480       .  S
C53          H55   1.082       .  S
Cu56         N59   2.070       .  S
Cu57         N67   2.085       .  S
Cu58         N60   2.069       .  S
Cu58         N66   2.068       .  S
N59          N60   1.320       .  A
N59          C63   1.344       .  A
N60          C61   1.346       .  A
C61          C62   1.384       .  A
C61          H64   1.082       .  S
C62          C63   1.382       .  A
C62         C658   1.475       .  S
C63          H65   1.082       .  S
N66          N67   1.322       .  A
N66          C70   1.341       .  A
N67          C68   1.348       .  A
C68          C69   1.388       .  A
C68          H71   1.082       .  S
C69          C70   1.383       .  A
C69         C674   1.485       .  S
C70          H72   1.079       .  S
N73          N74   1.320       .  A
N73          C77   1.348       .  A
N73         Cu81   2.085       .  S
N74          C75   1.340       .  A
N74         Cu80   2.052       .  S
C75          C76   1.381       .  A
C75          H78   1.081       .  S
C76          C77   1.389       .  A
C76         C610   1.480       .  S
C77          H79   1.082       .  S
Cu80         N83   2.052       .  S
Cu81         N91   2.087       .  S
Cu82         N84   2.074       .  S
Cu82         N90   2.075       .  S
N83          N84   1.320       .  A
N83          C87   1.339       .  A
N84          C85   1.347       .  A
C85          C86   1.385       .  A
C85          H88   1.082       .  S
C86          C87   1.379       .  A
C86         C629   1.472       .  S
C87          H89   1.082       .  S
N90          N91   1.323       .  A
N90          C94   1.347       .  A
N91          C92   1.343       .  A
C92          C93   1.387       .  A
C92          H95   1.082       .  S
C93          C94   1.387       .  A
C93         C677   1.488       .  S
C94          H96   1.079       .  S
N97          N98   1.323       .  A
N97         C101   1.344       .  A
N97        Cu105   2.071       .  S
N98          C99   1.345       .  A
N98        Cu104   2.076       .  S
C99         C100   1.382       .  A
C99         H102   1.082       .  S
C100        C101   1.381       .  A
C100        C578   1.475       .  S
C101        H103   1.081       .  S
Cu104       N107   2.075       .  S
Cu105       N115   2.070       .  S
Cu106       N108   2.058       .  S
Cu106       N114   2.059       .  S
N107        N108   1.321       .  A
N107        C111   1.345       .  A
N108        C109   1.342       .  A
C109        C110   1.381       .  A
C109        H112   1.082       .  S
C110        C111   1.386       .  A
C110        C626   1.476       .  S
C111        H113   1.082       .  S
N114        N115   1.321       .  A
N114        C118   1.340       .  A
N115        C116   1.347       .  A
C116        C117   1.385       .  A
C116        H119   1.082       .  S
C117        C118   1.381       .  A
C117        C594   1.476       .  S
C118        H120   1.082       .  S
N121        N122   1.324       .  A
N121        C125   1.349       .  A
N121       Cu129   2.090       .  S
N122        C123   1.343       .  A
N122       Cu128   2.077   1_455  S
C123        C124   1.383       .  A
C123        H126   1.081       .  S
C124        C125   1.386       .  A
C124        C562   1.483       .  S
C125        H127   1.082       .  S
Cu128       N131   2.076       .  S
Cu129       N139   2.089   1_455  S
Cu130       N132   2.059       .  S
Cu130       N138   2.059       .  S
N131        N132   1.320       .  A
N131        C135   1.345       .  A
N132        C133   1.344       .  A
C133        C134   1.382       .  A
C133        H136   1.082       .  S
C134        C135   1.385       .  A
C134        C709   1.474       .  S
C135        H137   1.082       .  S
N138        N139   1.322       .  A
N138        C142   1.340       .  A
N139        C140   1.349       .  A
C140        C141   1.389       .  A
C140        H143   1.081   1_655  S
C141        C142   1.381       .  A
C141        C597   1.482       .  S
C142        H144   1.082       .  S
N145        N146   1.319       .  A
N145        C149   1.346       .  A
N145       Cu153   2.071       .  S
N146        C147   1.342       .  A
N146       Cu152   2.056       .  S
C147        C148   1.382       .  A
C147        H150   1.082       .  S
C148        C149   1.386       .  A
C148        C530   1.476       .  S
C149        H151   1.082       .  S
Cu152       N155   2.057       .  S
Cu153       N163   2.073       .  S
Cu154       N156   2.094       .  S
Cu154       N162   2.096       .  S
N155        N156   1.322       .  A
N155        C159   1.339   1_554  A
N156        C157   1.352   1_554  A
C157        C158   1.389       .  A
C157        H160   1.082       .  S
C158        C159   1.377       .  A
C158        C661   1.478       .  S
C159        H161   1.082       .  S
N162        N163   1.324       .  A
N162        C166   1.348       .  A
N163        C164   1.342       .  A
C164        C165   1.384       .  A
C164        H167   1.082       .  S
C165        C166   1.391       .  A
C165        C549   1.491       .  S
C166        H168   1.079       .  S
N169        N170   1.320       .  A
N169        C173   1.346       .  A
N169       Cu177   2.073       .  S
N170        C171   1.344       .  A
N170       Cu176   2.072       .  S
C171        C172   1.385       .  A
C171        H174   1.082       .  S
C172        C173   1.386       .  A
C172        C514   1.484       .  S
C173        H175   1.080       .  S
Cu176       N179   2.072       .  S
Cu177       N187   2.073   1_545  S
Cu178       N180   2.083       .  S
Cu178       N186   2.083       .  S
N179        N180   1.322   1_545  A
N179        C183   1.343       .  A
N180        C181   1.346       .  A
C181        C182   1.387   1_565  A
C181        H184   1.082       .  S
C182        C183   1.383       .  A
C182        C741   1.480   1_545  S
C183        H185   1.081       .  S
N186        N187   1.323       .  A
N186        C190   1.348       .  A
N187        C188   1.344       .  A
C188        C189   1.379       .  A
C188        H191   1.082       .  S
C189        C190   1.384       .  A
C189        C546   1.474       .  S
C190        H192   1.082       .  S
N193        N194   1.321       .  A
N193        C197   1.346       .  A
N193       Cu201   2.070       .  S
N194        C195   1.342       .  A
N194       Cu200   2.066       .  S
C195        C196   1.383       .  A
C195        H198   1.082       .  S
C196        C197   1.385       .  A
C196        C642   1.477       .  S
C197        H199   1.082       .  S
Cu200       N203   2.066       .  S
Cu201       N211   2.070       .  S
Cu202       N204   2.060       .  S
Cu202       N210   2.060       .  S
N203        N204   1.321       .  A
N203        C207   1.342       .  A
N204        C205   1.344       .  A
C205        C206   1.380       .  A
C205        H208   1.082       .  S
C206        C207   1.381       .  A
C206        C482   1.469       .  S
C207        H209   1.082       .  S
N210        N211   1.322       .  A
N210        C214   1.343       .  A
N211        C212   1.342       .  A
C212        C213   1.381       .  A
C212        H215   1.082       .  S
C213        C214   1.381       .  A
C213        C498   1.471       .  S
C214        H216   1.081       .  S
N217        N218   1.322       .  A
N217        C221   1.344       .  A
N217       Cu225   2.066   1_655  S
N218        C219   1.344       .  A
N218       Cu224   2.074       .  S
C219        C220   1.384       .  A
C219        H222   1.082       .  S
C220        C221   1.383       .  A
C220        C613   1.477       .  S
C221        H223   1.082       .  S
Cu224       N227   2.073   1_655  S
Cu225       N235   2.065       .  S
Cu226       N228   2.071       .  S
Cu226       N234   2.071       .  S
N227        N228   1.321       .  A
N227        C231   1.344       .  A
N228        C229   1.346       .  A
C229        C230   1.386       .  A
C229        H232   1.081       .  S
C230        C231   1.383       .  A
C230        C466   1.481       .  S
C231        H233   1.082   1_455  S
N234        N235   1.322       .  A
N234        C238   1.342       .  A
N235        C236   1.345       .  A
C236        C237   1.384       .  A
C236        H239   1.080       .  S
C237        C238   1.383       .  A
C237        C501   1.478       .  S
C238        H240   1.082       .  S
N241        N242   1.323       .  A
N241        C245   1.347       .  A
N241       Cu249   2.081       .  S
N242        C243   1.342       .  A
N242       Cu248   2.064       .  S
C243        C244   1.379       .  A
C243        H246   1.082       .  S
C244        C245   1.384       .  A
C244        C533   1.473       .  S
C245        H247   1.082       .  S
Cu248       N251   2.064       .  S
Cu249       N259   2.081       .  S
Cu250       N252   2.059       .  S
Cu250       N258   2.060       .  S
N251        N252   1.319       .  A
N251        C255   1.343       .  A
N252        C253   1.342       .  A
C253        C254   1.384       .  A
C253        H256   1.082       .  S
C254        C255   1.385       .  A
C254        C485   1.475       .  S
C255        H257   1.081       .  S
N258        N259   1.322       .  A
N258        C262   1.342       .  A
N259        C260   1.346       .  A
C260        C261   1.385       .  A
C260        H263   1.082       .  S
C261        C262   1.380       .  A
C261        C453   1.477       .  S
C262        H264   1.081       .  S
N265        N266   1.321       .  A
N265        C269   1.347       .  A
N265       Cu273   2.081       .  S
N266        C267   1.343       .  A
N266       Cu272   2.067       .  S
C267        C268   1.382       .  A
C267        H270   1.082       .  S
C268        C269   1.389       .  A
C268        C517   1.484       .  S
C269        H271   1.080       .  S
Cu272       N275   2.067       .  S
Cu273       N283   2.081       .  S
Cu274       N276   2.076       .  S
Cu274       N282   2.076       .  S
N275        N276   1.320       .  A
N275        C279   1.343       .  A
N276        C277   1.347       .  A
C277        C278   1.388       .  A
C277        H280   1.082       .  S
C278        C279   1.384       .  A
C278        C434   1.483       .  S
C279        H281   1.082       .  S
N282        N283   1.323       .  A
N282        C286   1.345       .  A
N283        C284   1.344       .  A
C284        C285   1.385       .  A
C284        H287   1.082       .  S
C285        C286   1.384       .  A
C285        C450   1.481       .  S
C286        H288   1.081       .  S
N289        N290   1.320       .  A
N289        C293   1.347       .  A
N289       Cu297   2.070       .  S
N290        C291   1.340       .  A
N290       Cu296   2.060       .  S
C291        C292   1.380       .  A
C291        H294   1.082       .  S
C292        C293   1.385       .  A
C292        C581   1.475   1_455  S
C293        H295   1.081       .  S
Cu296       N299   2.061       .  S
Cu297       N307   2.072       .  S
Cu298       N300   2.092       .  S
Cu298       N306   2.094       .  S
N299        N300   1.322       .  A
N299        C303   1.342       .  A
N300        C301   1.350       .  A
C301        C302   1.388       .  A
C301        H304   1.081       .  S
C302        C303   1.379       .  A
C302        C469   1.480       .  S
C303        H305   1.082       .  S
N306        N307   1.325       .  A
N306        C310   1.350       .  A
N307        C308   1.343       .  A
C308        C309   1.380       .  A
C308        H311   1.082       .  S
C309        C310   1.387       .  A
C309        C418   1.480       .  S
C310        H312   1.082       .  S
N313        N314   1.321       .  A
N313        C317   1.347       .  A
N313       Cu321   2.086       .  S
N314        C315   1.344       .  A
N314       Cu320   2.068       .  S
C315        C316   1.384   1_545  A
C315        H318   1.082   1_545  S
C316        C317   1.389   1_565  A
C316        C565   1.483       .  S
C317        H319   1.082       .  S
Cu320       N323   2.069       .  S
Cu321       N331   2.087       .  S
Cu322       N324   2.088       .  S
Cu322       N330   2.088       .  S
N323        N324   1.321       .  A
N323        C327   1.344       .  A
N324        C325   1.348       .  A
C325        C326   1.390       .  A
C325        H328   1.082       .  S
C326        C327   1.385       .  A
C326        C402   1.489       .  S
C327        H329   1.080       .  S
N330        N331   1.324       .  A
N330        C334   1.347       .  A
N331        C332   1.347       .  A
C332        C333   1.384       .  A
C332        H335   1.082       .  S
C333        C334   1.383       .  A
C333        C421   1.481       .  S
C334        H336   1.082       .  S
N337        N338   1.321       .  A
N337        C341   1.348       .  A
N337       Cu345   2.079       .  S
N338        C339   1.341       .  A
N338       Cu344   2.057       .  S
C339        C340   1.378       .  A
C339        H342   1.082       .  S
C340        C341   1.385       .  A
C340        C725   1.472       .  S
C341        H343   1.081       .  S
Cu344       N347   2.057       .  S
Cu345       N355   2.081       .  S
Cu346       N348   2.090       .  S
Cu346       N354   2.091       .  S
N347        N348   1.322       .  A
N347        C351   1.342       .  A
N348        C349   1.350       .  A
C349        C350   1.386       .  A
C349        H352   1.082       .  S
C350        C351   1.377       .  A
C350        C437   1.473       .  S
C351        H353   1.082       .  S
N354        N355   1.324       .  A
N354        C358   1.347       .  A
N355        C356   1.345       .  A
C356        C357   1.386       .  A
C356        H359   1.082       .  S
C357        C358   1.390       .  A
C357        C386   1.492       .  S
C358        H360   1.079       .  S
N361        N362   1.319       .  A
N361        C365   1.344       .  A
N361       Cu369   2.061       .  S
N362        C363   1.345       .  A
N362       Cu368   2.072       .  S
C363        C364   1.386       .  A
C363        H366   1.082       .  S
C364        C365   1.384       .  A
C364        C693   1.481       .  S
C365        H367   1.080       .  S
Cu368       N371   2.072       .  S
Cu369       N379   2.061       .  S
Cu370       N372   2.099       .  S
Cu370       N378   2.098       .  S
N371        N372   1.324       .  A
N371        C375   1.343       .  A
N372        C373   1.350       .  A
C373        C374   1.387       .  A
C373        H376   1.082       .  S
C374        C375   1.380       .  A
C374        C405   1.481       .  S
C375        H377   1.082       .  S
N378        N379   1.322       .  A
N378        C382   1.351       .  A
N379        C380   1.340       .  A
C380        C381   1.381       .  A
C380        H383   1.082       .  S
C381        C382   1.393       .  A
C381        C389   1.489       .  S
C382        H384   1.080       .  S
C385        C386   1.408       .  A
C385        C390   1.408       .  A
C385        H392   1.084       .  S
C386        C387   1.417       .  A
C387        C388   1.405       .  A
C387        C394   1.507       .  S
C388        C389   1.405       .  A
C388        H393   1.084       .  S
C389        C390   1.414       .  A
C390        C391   1.506       .  S
C391        H395   1.111       .  S
C391        H396   1.110       .  S
C391        H397   1.108       .  S
C394        H398   1.110       .  S
C394        H399   1.107       .  S
C394        H400   1.111       .  S
C401        C402   1.405       .  A
C401        C406   1.403       .  A
C401        H408   1.084       .  S
C402        C403   1.418       .  A
C403        C404   1.408       .  A
C403        C410   1.507       .  S
C404        C405   1.402       .  A
C404        H409   1.084       .  S
C405        C406   1.414       .  A
C406        C407   1.507       .  S
C407        H411   1.111       .  S
C407        H412   1.110       .  S
C407        H413   1.108       .  S
C410        H414   1.107       .  S
C410        H415   1.110       .  S
C410        H416   1.111       .  S
C417        C418   1.402       .  A
C417        C422   1.404       .  A
C417        H424   1.084       .  S
C418        C419   1.413       .  A
C419        C420   1.408       .  A
C419        C426   1.506       .  S
C420        C421   1.404       .  A
C420        H425   1.084       .  S
C421        C422   1.413       .  A
C422        C423   1.507       .  S
C423        H427   1.111       .  S
C423        H428   1.109       .  S
C423        H429   1.110       .  S
C426        H430   1.109       .  S
C426        H431   1.110       .  S
C426        H432   1.111       .  S
C433        C434   1.406       .  A
C433        C438   1.404       .  A
C433        H440   1.084       .  S
C434        C435   1.418       .  A
C435        C436   1.404       .  A
C435        C442   1.507       .  S
C436        C437   1.400       .  A
C436        H441   1.085       .  S
C437        C438   1.409       .  A
C438        C439   1.506       .  S
C439        H443   1.111       .  S
C439        H444   1.110       .  S
C439        H445   1.110       .  S
C442        H446   1.110       .  S
C442        H447   1.107       .  S
C442        H448   1.110       .  S
C449        C450   1.404       .  A
C449        C454   1.402       .  A
C449        H456   1.084       .  S
C450        C451   1.415       .  A
C451        C452   1.405       .  A
C451        C458   1.507       .  S
C452        C453   1.402       .  A
C452        H457   1.084       .  S
C453        C454   1.414       .  A
C454        C455   1.508       .  S
C455        H459   1.111       .  S
C455        H460   1.110       .  S
C455        H461   1.108       .  S
C458        H462   1.110       .  S
C458        H463   1.107       .  S
C458        H464   1.111       .  S
C465        C466   1.404       .  A
C465        C470   1.406       .  A
C465        H472   1.084       .  S
C466        C467   1.416       .  A
C467        C468   1.404       .  A
C467        C474   1.508       .  S
C468        C469   1.402       .  A
C468        H473   1.084       .  S
C469        C470   1.413       .  A
C470        C471   1.506       .  S
C471        H475   1.111   1_455  S
C471        H476   1.109       .  S
C471        H477   1.110   1_455  S
C474        H478   1.108       .  S
C474        H479   1.110       .  S
C474        H480   1.111       .  S
C481        C482   1.402   1_554  A
C481        C486   1.403       .  A
C481        H488   1.084       .  S
C482        C483   1.409   1_556  A
C483        C484   1.399       .  A
C483        C490   1.507   1_554  S
C484        C485   1.404       .  A
C484        H489   1.084       .  S
C485        C486   1.413       .  A
C486        C487   1.507       .  S
C487        H491   1.111       .  S
C487        H492   1.108       .  S
C487        H493   1.110       .  S
C490        H494   1.109       .  S
C490        H495   1.110       .  S
C490        H496   1.111   1_556  S
C497        C498   1.401       .  A
C497        C502   1.403       .  A
C497        H504   1.084       .  S
C498        C499   1.412       .  A
C499        C500   1.400       .  A
C499        C506   1.508       .  S
C500        C501   1.403       .  A
C500        H505   1.084       .  S
C501        C502   1.416       .  A
C502        C503   1.507       .  S
C503        H507   1.111       .  S
C503        H508   1.108       .  S
C503        H509   1.110       .  S
C506        H510   1.108       .  S
C506        H511   1.110       .  S
C506        H512   1.111       .  S
C513        C514   1.403       .  A
C513        C518   1.404       .  A
C513        H520   1.084       .  S
C514        C515   1.416       .  A
C515        C516   1.406       .  A
C515        C522   1.507       .  S
C516        C517   1.404       .  A
C516        H521   1.084       .  S
C517        C518   1.415       .  A
C518        C519   1.507       .  S
C519        H523   1.111       .  S
C519        H524   1.110       .  S
C519        H525   1.108       .  S
C522        H526   1.110       .  S
C522        H527   1.107       .  S
C522        H528   1.111       .  S
C529        C530   1.403       .  A
C529        C534   1.403       .  A
C529        H536   1.084       .  S
C530        C531   1.415       .  A
C531        C532   1.403       .  A
C531        C538   1.507       .  S
C532        C533   1.401       .  A
C532        H537   1.084       .  S
C533        C534   1.411       .  A
C534        C535   1.507       .  S
C535        H539   1.111       .  S
C535        H540   1.110       .  S
C535        H541   1.109       .  S
C538        H542   1.110       .  S
C538        H543   1.108       .  S
C538        H544   1.111       .  S
C545        C546   1.400       .  A
C545        C550   1.408       .  A
C545        H552   1.084       .  S
C546        C547   1.408       .  A
C547        C548   1.402       .  A
C547        C554   1.507       .  S
C548        C549   1.407       .  A
C548        H553   1.083       .  S
C549        C550   1.420       .  A
C550        C551   1.506       .  S
C551        H555   1.111       .  S
C551        H556   1.107       .  S
C551        H557   1.110       .  S
C554        H558   1.110       .  S
C554        H559   1.110       .  S
C554        H560   1.111       .  S
C561        C562   1.404       .  A
C561        C566   1.407       .  A
C561        H568   1.084       .  S
C562        C563   1.415       .  A
C563        C564   1.404       .  A
C563        C570   1.508       .  S
C564        C565   1.403       .  A
C564        H569   1.084       .  S
C565        C566   1.415       .  A
C566        C567   1.507       .  S
C567        H571   1.111       .  S
C567        H572   1.110       .  S
C567        H573   1.108       .  S
C570        H574   1.110       .  S
C570        H575   1.107       .  S
C570        H576   1.111       .  S
C577        C578   1.402       .  A
C577        C582   1.405       .  A
C577        H584   1.084       .  S
C578        C579   1.414       .  A
C579        C580   1.401   1_655  A
C579        C586   1.508   1_655  S
C580        C581   1.401   1_455  A
C580        H585   1.084       .  S
C581        C582   1.413       .  A
C582        C583   1.506       .  S
C583        H587   1.111       .  S
C583        H588   1.110       .  S
C583        H589   1.109       .  S
C586        H590   1.110   1_455  S
C586        H591   1.108       .  S
C586        H592   1.111       .  S
C593        C594   1.404       .  A
C593        C598   1.406       .  A
C593        H600   1.084       .  S
C594        C595   1.414       .  A
C595        C596   1.399       .  A
C595        C602   1.509       .  S
C596        C597   1.404       .  A
C596        H601   1.084       .  S
C597        C598   1.414       .  A
C598        C599   1.506   1_655  S
C599        H603   1.111       .  S
C599        H604   1.108       .  S
C599        H605   1.110       .  S
C602        H606   1.110       .  S
C602        H607   1.107       .  S
C602        H608   1.111       .  S
C609        C610   1.403       .  A
C609        C614   1.404       .  A
C609        H616   1.084       .  S
C610        C611   1.416       .  A
C611        C612   1.403       .  A
C611        C618   1.508       .  S
C612        C613   1.402       .  A
C612        H617   1.084       .  S
C613        C614   1.413       .  A
C614        C615   1.507       .  S
C615        H619   1.111       .  S
C615        H620   1.110       .  S
C615        H621   1.108       .  S
C618        H622   1.110       .  S
C618        H623   1.107       .  S
C618        H624   1.111       .  S
C625        C626   1.404       .  A
C625        C630   1.401       .  A
C625        H632   1.084       .  S
C626        C627   1.415       .  A
C627        C628   1.402       .  A
C627        C634   1.507       .  S
C628        C629   1.402       .  A
C628        H633   1.085       .  S
C629        C630   1.411       .  A
C630        C631   1.508       .  S
C631        H635   1.111       .  S
C631        H636   1.108       .  S
C631        H637   1.110       .  S
C634        H638   1.110       .  S
C634        H639   1.107       .  S
C634        H640   1.111       .  S
C641        C642   1.402       .  A
C641        C646   1.404       .  A
C641        H648   1.084       .  S
C642        C643   1.413       .  A
C643        C644   1.404       .  A
C643        C650   1.507       .  S
C644        C645   1.403       .  A
C644        H649   1.084       .  S
C645        C646   1.415       .  A
C646        C647   1.508       .  S
C647        H651   1.111       .  S
C647        H652   1.110       .  S
C647        H653   1.107       .  S
C650        H654   1.110       .  S
C650        H655   1.108       .  S
C650        H656   1.111       .  S
C657        C658   1.402       .  A
C657        C662   1.407       .  A
C657        H664   1.084       .  S
C658        C659   1.412       .  A
C659        C660   1.402       .  A
C659        C666   1.507       .  S
C660        C661   1.403       .  A
C660        H665   1.084       .  S
C661        C662   1.413       .  A
C662        C663   1.505       .  S
C663        H667   1.111       .  S
C663        H668   1.109       .  S
C663        H669   1.110       .  S
C666        H670   1.110       .  S
C666        H671   1.110       .  S
C666        H672   1.111       .  S
C673        C674   1.404       .  A
C673        C678   1.409       .  A
C673        H680   1.084       .  S
C674        C675   1.417       .  A
C675        C676   1.401       .  A
C675        C682   1.509       .  S
C676        C677   1.403       .  A
C676        H681   1.084       .  S
C677        C678   1.418       .  A
C678        C679   1.506       .  S
C679        H683   1.111       .  S
C679        H684   1.110       .  S
C679        H685   1.107       .  S
C682        H686   1.110       .  S
C682        H687   1.107       .  S
C682        H688   1.111       .  S
C689        C690   1.402       .  A
C689        C694   1.403       .  A
C689        H696   1.084   1_545  S
C690        C691   1.414       .  A
C691        C692   1.404       .  A
C691        C698   1.507       .  S
C692        C693   1.404       .  A
C692        H697   1.084       .  S
C693        C694   1.416       .  A
C694        C695   1.508       .  S
C695        H699   1.111   1_545  S
C695        H700   1.110       .  S
C695        H701   1.107       .  S
C698        H702   1.110       .  S
C698        H703   1.108       .  S
C698        H704   1.111       .  S
C705        C706   1.404       .  A
C705        C710   1.404       .  A
C705        H712   1.084       .  S
C706        C707   1.413       .  A
C707        C708   1.401       .  A
C707        C714   1.508       .  S
C708        C709   1.402       .  A
C708        H713   1.084       .  S
C709        C710   1.411       .  A
C710        C711   1.506       .  S
C711        H715   1.111       .  S
C711        H716   1.109       .  S
C711        H717   1.110       .  S
C714        H718   1.108       .  S
C714        H719   1.110       .  S
C714        H720   1.111       .  S
C721        C722   1.403       .  A
C721        C726   1.403       .  A
C721        H728   1.084       .  S
C722        C723   1.415       .  A
C723        C724   1.403       .  A
C723        C730   1.507       .  S
C724        C725   1.401       .  A
C724        H729   1.084       .  S
C725        C726   1.410       .  A
C726        C727   1.506       .  S
C727        H731   1.111       .  S
C727        H732   1.110       .  S
C727        H733   1.110       .  S
C730        H734   1.110       .  S
C730        H735   1.108       .  S
C730        H736   1.111       .  S
C737        C738   1.403   1_545  A
C737        C742   1.406       .  A
C737        H744   1.084       .  S
C738        C739   1.414       .  A
C739        C740   1.401       .  A
C739        C746   1.508       .  S
C740        C741   1.403       .  A
C740        H745   1.084       .  S
C741        C742   1.415   1_565  A
C742        C743   1.507       .  S
C743        H747   1.111       .  S
C743        H748   1.108       .  S
C743        H749   1.110       .  S
C746        H750   1.110       .  S
C746        H751   1.108       .  S
C746        H752   1.111       .  S
C753        C754   1.402       .  A
C753        C758   1.403       .  A
C753        H760   1.084       .  S
C754        C755   1.413   1_565  A
C755        C756   1.403       .  A
C755        C762   1.507       .  S
C756        C757   1.402   1_545  A
C756        H761   1.084       .  S
C757        C758   1.412       .  A
C758        C759   1.507       .  S
C759        H763   1.111       .  S
C759        H764   1.109       .  S
C759        H765   1.110       .  S
C762        H766   1.108       .  S
C762        H767   1.110       .  S
C762        H768   1.111       .  S
