geometry optimzed in LAMMPS
_audit_creation_date              2020-11-30 
_audit_creation_method            'lammps2cif' 
_symmetry_space_group_name_H-M    'P1' 
_symmetry_Int_Tables_number       1 
_symmetry_cell_setting            triclinic 
loop_ 
_symmetry_equiv_pos_as_xyz 
  x,y,z 
_cell_length_a                    23.32938814842204 
_cell_length_b                    23.372870196742213 
_cell_length_c                    23.503816156360422 
_cell_angle_alpha                 90.21570787224897 
_cell_angle_beta                  88.76125147829903 
_cell_angle_gamma                 90.73957347577849 
loop_ 
_atom_site_label 
_atom_site_type_symbol 
_atom_site_fract_x 
_atom_site_fract_y 
_atom_site_fract_z 
_atom_site_charge 
O1          O  0.21546119  0.48831070  0.92046191    -0.71470
O2          O  0.21483833  0.52046407  0.08865263    -0.71690
O3          O  0.20855999  0.57755416  0.98830946    -0.71550
O4          O  0.19876000  0.42843670  0.02282018    -0.71560
O5          O  0.28471363  0.41520059  0.99088340    -0.71520
O6          O  0.29452306  0.58555817  0.01731877    -0.71540
O7          O  0.29820862  0.48423806  0.07862102    -0.71480
O8          O  0.30382022  0.51473890  0.92743245    -0.71670
V9          V  0.20940211  0.50339193  0.00492863     1.35240
V10         V  0.29545738  0.49987041  0.00361123     1.35170
C11         C  0.26465792  0.50053166  0.89561873     0.77770
C12         C  0.26279958  0.50603283  0.11148755     0.77820
C13         C  0.24686582  0.61024482  0.00404309     0.77690
C14         C  0.23444176  0.39408163  0.00534460     0.77650
C15         C  0.34661563  0.49699644  0.66297901    -0.02180
O16         O  0.71902259  0.42024184  0.97431838    -0.71470
O17         O  0.70378802  0.58605700  0.00851616    -0.71690
O18         O  0.70418234  0.52218306  0.91812381    -0.71550
O19         O  0.70123583  0.48426773  0.06565613    -0.71560
O20         O  0.78464413  0.52083717  0.07806899    -0.71520
O21         O  0.79249641  0.49812012  0.90994942    -0.71540
O22         O  0.79389283  0.58585367  0.98461405    -0.71480
O23         O  0.80290658  0.43371473  0.00755998    -0.71670
V24         V  0.70724791  0.50290006  0.99202810     1.35240
V25         V  0.79360186  0.50962733  0.99473159     1.35170
C26         C  0.76849471  0.39971206  0.98693047     0.77770
C27         C  0.75084136  0.61385453  0.99721594     0.77820
C28         C  0.74358524  0.50762944  0.88635949     0.77690
C29         C  0.73590835  0.50354382  0.09928808     0.77650
C30         C  0.66841908  0.50655297  0.65015462    -0.02180
O31         O  0.02981400  0.40809710  0.70985326    -0.71470
O32         O  0.00004175  0.57437796  0.71337837    -0.71690
O33         O  0.09114947  0.50820969  0.70987333    -0.71550
O34         O  0.93799997  0.47444975  0.69636842    -0.71560
O35         O  0.92089368  0.48560056  0.78642632    -0.71520
O36         O  0.09056271  0.49018342  0.80026306    -0.71540
O37         O  0.00649953  0.56439150  0.80402054    -0.71480
O38         O  0.00787103  0.41117415  0.79997735    -0.71670
V39         V  0.01451716  0.49110548  0.70866287     1.35240
V40         V  0.00610415  0.48795722  0.79615803     1.35170
C41         C  0.02283708  0.38254408  0.75812542     0.77770
C42         C  0.00069978  0.59674132  0.76366471     0.77820
C43         C  0.11866259  0.50133192  0.75377635     0.77690
C44         C  0.90154315  0.47832986  0.73552109     0.77650
O45         O  0.92376011  0.49912836  0.21369946    -0.71470
O46         O  0.09215785  0.48605751  0.22223219    -0.71690
O47         O  0.00127658  0.41387266  0.20860533    -0.71550
O48         O  0.01604619  0.56933990  0.20808280    -0.71560
O49         O  0.98114931  0.57329444  0.29377323    -0.71520
O50         O  0.02178903  0.40959389  0.29792699    -0.71540
O51         O  0.07430362  0.51381375  0.30803320    -0.71480
O52         O  0.92979790  0.46482906  0.29735287    -0.71670
V53         V  0.00847700  0.49160471  0.21285544     1.35240
V54         V  0.00181425  0.49094186  0.29892694     1.35170
C55         C  0.89948214  0.48479364  0.26151999     0.77770
C56         C  0.11046110  0.50146975  0.27167069     0.77820
C57         C  0.01282877  0.38395087  0.25031842     0.77690
C58         C  0.99513624  0.59916402  0.24691201     0.77650
C59         C  0.66431704  0.50180253  0.33874853    -0.02180
C60         C  0.35057483  0.50691874  0.33826364    -0.02180
O61         O  0.57184240  0.71101161  0.02097376    -0.71470
O62         O  0.40861002  0.71832544  0.97724349    -0.71690
O63         O  0.51142324  0.70814735  0.92411961    -0.71550
O64         O  0.46636017  0.70221170  0.07560707    -0.71560
O65         O  0.50247967  0.78706380  0.08764563    -0.71520
O66         O  0.48287883  0.79571534  0.92069771    -0.71540
O67         O  0.41741351  0.79860133  0.01962789    -0.71480
O68         O  0.57038031  0.79864633  0.99180533    -0.71670
V69         V  0.48966511  0.70926060  0.99988821     1.35240
V70         V  0.49330645  0.79525867  0.00475010     1.35170
C71         C  0.59849022  0.75926130  0.01184274     0.77770
C72         C  0.38716677  0.76735186  0.99079683     0.77820
C73         C  0.49562343  0.74872442  0.89423306     0.77690
C74         C  0.48330054  0.73972836  0.10937497     0.77650
C75         C  0.50201861  0.66349536  0.66233265    -0.02180
O76         O  0.42213554  0.02104004  0.72586676    -0.71470
O77         O  0.58545388  0.97725499  0.72703134    -0.71690
O78         O  0.48366652  0.92306060  0.71837171    -0.71550
O79         O  0.52668791  0.07437269  0.71413994    -0.71560
O80         O  0.49358910  0.08576231  0.80001063    -0.71520
O81         O  0.51613621  0.91748418  0.80351116    -0.71540
O82         O  0.57885464  0.01782055  0.80897848    -0.71480
O83         O  0.42666035  0.98660015  0.81025336    -0.71670
V84         V  0.50431099  0.99915768  0.72057028     1.35240
V85         V  0.50326582  0.00181224  0.80609184     1.35170
C86         C  0.39711313  0.00990323  0.77442943     0.77770
C87         C  0.60766738  0.98920268  0.77567620     0.77820
C88         C  0.50319518  0.89223150  0.75633422     0.77690
C89         C  0.51325616  0.10800747  0.75295322     0.77650
O90         O  0.48739695  0.20915499  0.91042916    -0.71470
O91         O  0.52788644  0.19698697  0.07339820    -0.71690
O92         O  0.43226039  0.18422877  0.01127750    -0.71550
O93         O  0.58039431  0.20752061  0.96449607    -0.71560
O94         O  0.58432789  0.28337484  0.01418860    -0.71520
O95         O  0.41591313  0.27285790  0.99219876    -0.71540
O96         O  0.48893215  0.28010913  0.07775039    -0.71480
O97         O  0.51126868  0.29799358  0.92515216    -0.71670
V98         V  0.50685634  0.19912762  0.99054280     1.35240
V99         V  0.49990861  0.28430649  0.00141178     1.35170
C100        C  0.49819443  0.25965788  0.89082059     0.77770
C101        C  0.51339331  0.24143568  0.10347286     0.77820
C102        C  0.39624190  0.22152838  0.00231742     0.77690
C103        C  0.60915706  0.23757998  0.99557703     0.77650
C104        C  0.50545591  0.33961489  0.66192728    -0.02180
O105        O  0.47787327  0.91793612  0.19941400    -0.71470
O106        O  0.49350965  0.08413914  0.20262151    -0.71690
O107        O  0.56146394  0.99362534  0.18391871    -0.71550
O108        O  0.40592587  0.01025463  0.20565116    -0.71560
O109        O  0.40917471  0.00663415  0.29748326    -0.71520
O110        O  0.57695332  0.99109652  0.27441807    -0.71540
O111        O  0.50332341  0.07626857  0.29396106    -0.71480
O112        O  0.48656051  0.92144937  0.29119826    -0.71670
V113        V  0.48445362  0.00139339  0.19974850     1.35240
V114        V  0.49367469  0.99900021  0.28753973     1.35170
C115        C  0.48332502  0.89242590  0.24714816     0.77770
C116        C  0.50173783  0.10717714  0.25134351     0.77820
C117        C  0.59647260  0.99052775  0.22272929     0.77690
C118        C  0.37918885  0.01096396  0.25230212     0.77650
C119        C  0.50904562  0.66105605  0.33521122    -0.02180
C120        C  0.50549865  0.33780786  0.33177417    -0.02180
O121        O  0.19246050  0.92213712  0.52680773    -0.71470
O122        O  0.21965636  0.08589543  0.48055949    -0.71690
O123        O  0.18608028  0.98357954  0.43042665    -0.71550
O124        O  0.20708919  0.03264317  0.57465384    -0.71560
O125        O  0.27927385  0.97879752  0.58137770    -0.71520
O126        O  0.27658090  0.99969883  0.41362382    -0.71540
O127        O  0.30408784  0.06508169  0.50813979    -0.71480
O128        O  0.27559033  0.91505656  0.48662421    -0.71670
V129        V  0.20053631  0.00571364  0.50310701     1.35240
V130        V  0.28467201  0.99035439  0.49724020     1.35170
C131        C  0.23563941  0.88996640  0.51172780     0.77770
C132        C  0.27154659  0.10248379  0.49217474     0.77820
C133        C  0.22506521  0.99120667  0.39472718     0.77690
C134        C  0.23461626  0.00203101  0.60514137     0.77650
C135        C  0.33940727  0.66112109  0.50407845    -0.02180
O136        O  0.72503426  0.02371946  0.58567978    -0.71470
O137        O  0.70271378  0.00132448  0.41994489    -0.71690
O138        O  0.70013822  0.93656306  0.51689956    -0.71550
O139        O  0.70885946  0.08982749  0.49266480    -0.71560
O140        O  0.80141440  0.09249668  0.49851420    -0.71520
O141        O  0.78640182  0.92440511  0.48422630    -0.71540
O142        O  0.79424913  0.01695361  0.41419523    -0.71480
O143        O  0.81197407  0.00001915  0.56554186    -0.71670
V144        V  0.71020212  0.01297563  0.50357197     1.35240
V145        V  0.79735719  0.00833433  0.49083552     1.35170
C146        C  0.77614972  0.01247788  0.60246050     0.77770
C147        C  0.74917230  0.00699700  0.38914812     0.77820
C148        C  0.73722775  0.90286531  0.50014590     0.77690
C149        C  0.75325836  0.11885408  0.49697770     0.77650
C150        C  0.66015446  0.67477962  0.49787055    -0.02180
O151        O  0.98183401  0.71041129  0.41530369    -0.71470
O152        O  0.00324125  0.72292054  0.57950449    -0.71690
O153        O  0.91539099  0.72033276  0.51169570    -0.71550
O154        O  0.07121570  0.69935121  0.48609112    -0.71560
O155        O  0.08903391  0.79054949  0.48709303    -0.71520
O156        O  0.92109756  0.81109567  0.49402860    -0.71540
O157        O  0.00580386  0.81445275  0.56516627    -0.71480
O158        O  0.00410524  0.80085974  0.41262563    -0.71670
V159        V  0.99341819  0.71467332  0.49773310     1.35240
V160        V  0.00507750  0.80245320  0.48971512     1.35170
C161        C  0.98977837  0.75681102  0.38692962     0.77770
C162        C  0.00512813  0.77423956  0.59894230     0.77820
C163        C  0.89034890  0.76667037  0.50673262     0.77690
C164        C  0.10778425  0.73888537  0.48508594     0.77650
O165        O  0.91521956  0.21425581  0.51795410    -0.71470
O166        O  0.08455159  0.22076169  0.49498011    -0.71690
O167        O  0.00961916  0.20866294  0.58270030    -0.71550
O168        O  0.99075939  0.20588083  0.43038762    -0.71560
O169        O  0.99883354  0.29779215  0.42189512    -0.71520
O170        O  0.99785099  0.30017081  0.59082035    -0.71540
O171        O  0.07541286  0.31206532  0.50604851    -0.71480
O172        O  0.92100727  0.30629565  0.50866455    -0.71670
V173        V  0.00003701  0.21399539  0.50669905     1.35240
V174        V  0.99823020  0.30242751  0.50666282     1.35170
C175        C  0.89042768  0.26337357  0.51577081     0.77770
C176        C  0.10735501  0.27156696  0.49614085     0.77820
C177        C  0.00474137  0.25084157  0.61399566     0.77690
C178        C  0.99581933  0.24752467  0.39861461     0.77650
C179        C  0.66273511  0.34429983  0.49679523    -0.02180
C180        C  0.34709846  0.34217515  0.49487550    -0.02180
C181        C  0.99572038  0.16192720  0.16407922    -0.02180
C182        C  0.83992323  0.99530589  0.15873109    -0.02180
C183        C  0.00263741  0.83087060  0.15568863    -0.02180
C184        C  0.15231101  0.99637518  0.16405700    -0.02180
C185        C  0.99808298  0.83834793  0.83303282    -0.02180
C186        C  0.15560712  0.00583111  0.83741492    -0.02180
C187        C  0.98893877  0.15866388  0.84327888    -0.02180
C188        C  0.83572664  0.99093212  0.84346784    -0.02180
C189        C  0.15298141  0.15482547  0.00263837    -0.02180
C190        C  0.15512973  0.83967850  0.98650096    -0.02180
C191        C  0.83432918  0.15903662  0.00346962    -0.02180
C192        C  0.83994506  0.83399739  0.00056822    -0.02180
C193        C  0.86936920  0.13227046  0.05506028     0.03440
C194        C  0.84961582  0.07725210  0.07663891    -0.12710
C195        C  0.86871165  0.05203288  0.12805001     0.00940
C196        C  0.91940620  0.07904877  0.15042651    -0.11240
C197        C  0.94310130  0.13312126  0.13113990     0.03430
C198        C  0.91899651  0.15662871  0.08107578    -0.10660
H199        H  0.81836527  0.05396457  0.05220039     0.09020
H200        H  0.93895330  0.06056408  0.18648026     0.06550
H201        H  0.93818447  0.19417624  0.06328000     0.06400
C202        C  0.13036306  0.87071468  0.04427600     0.03440
C203        C  0.07790990  0.84708702  0.06900605    -0.12710
C204        C  0.05536537  0.86283121  0.12342291     0.00940
C205        C  0.07748720  0.91525580  0.14528136    -0.11240
C206        C  0.13044726  0.94159561  0.12698925     0.03430
C207        C  0.15442248  0.91929760  0.07413956    -0.10660
H208        H  0.05536494  0.81399201  0.04645034     0.09020
H209        H  0.05408485  0.93434547  0.17966993     0.06550
H210        H  0.18797059  0.94223182  0.05373032     0.06400
C211        C  0.04319317  0.12989941  0.87231174     0.03440
C212        C  0.06917731  0.08119993  0.84649538    -0.12710
C213        C  0.12132416  0.05794867  0.86583294     0.00940
C214        C  0.14246919  0.08115161  0.91833221    -0.11240
C215        C  0.11877602  0.12922833  0.94828061     0.03430
C216        C  0.06534220  0.14885561  0.92657914    -0.10660
H217        H  0.04667285  0.06150388  0.81222945     0.09020
H218        H  0.17959207  0.06155523  0.93625004     0.06550
H219        H  0.04131698  0.18033703  0.95038052     0.06400
C220        C  0.86846576  0.86209784  0.05655154     0.03440
C221        C  0.85017022  0.91569070  0.07990053    -0.12710
C222        C  0.87332080  0.94147532  0.13052080     0.00940
C223        C  0.92439764  0.91547948  0.15135161    -0.11240
C224        C  0.94646255  0.86178244  0.13016316     0.03430
C225        C  0.91954151  0.83957800  0.08036421    -0.10660
H226        H  0.81570640  0.93723388  0.05900791     0.09020
H227        H  0.94698422  0.93560367  0.18496155     0.06550
H228        H  0.94124635  0.80650972  0.05746170     0.06400
C229        C  0.05179077  0.87186741  0.85964813     0.03440
C230        C  0.07383097  0.92743987  0.84454649    -0.12710
C231        C  0.12532535  0.95192863  0.86837904     0.00940
C232        C  0.14402313  0.92593098  0.91898092    -0.11240
C233        C  0.12296107  0.87097948  0.93748094     0.03430
C234        C  0.07638682  0.84737616  0.90810882    -0.10660
H235        H  0.05157555  0.95284476  0.81423556     0.09020
H236        H  0.17772876  0.94640718  0.94217256     0.06550
H237        H  0.05943722  0.80831992  0.92163130     0.06400
C238        C  0.86062802  0.04604133  0.87620744     0.03440
C239        C  0.83750797  0.07031380  0.92749440    -0.12710
C240        C  0.86008942  0.12241857  0.95152129     0.00940
C241        C  0.91334261  0.14340169  0.92733415    -0.11240
C242        C  0.93586062  0.12530819  0.87381990     0.03430
C243        C  0.91341131  0.07169160  0.85431799    -0.10660
H244        H  0.80431052  0.04681535  0.94885965     0.09020
H245        H  0.93429935  0.17954519  0.94718636     0.06550
H246        H  0.93538865  0.05142538  0.81888926     0.06400
C247        C  0.94583919  0.86452352  0.86883719     0.03440
C248        C  0.92332659  0.84357578  0.92215377    -0.12710
C249        C  0.87201702  0.86544286  0.94821487     0.00940
C250        C  0.85068612  0.91695265  0.92478686    -0.11240
C251        C  0.87124888  0.94058403  0.87149301     0.03430
C252        C  0.92258010  0.91687652  0.84897648    -0.10660
H253        H  0.94561405  0.81081583  0.94455991     0.09020
H254        H  0.81398738  0.93574701  0.94597477     0.06550
H255        H  0.94617180  0.93906337  0.81609057     0.06400
C256        C  0.04991834  0.12877101  0.13763453     0.03440
C257        C  0.07318092  0.07809249  0.16134610    -0.12710
C258        C  0.12128171  0.04972632  0.13642260     0.00940
C259        C  0.14166970  0.07028692  0.08165115    -0.11240
C260        C  0.12375491  0.12298158  0.05720256     0.03430
C261        C  0.07504914  0.14831328  0.08471409    -0.10660
H262        H  0.05248652  0.05978096  0.19806480     0.09020
H263        H  0.17208715  0.04465001  0.05826553     0.06550
H264        H  0.05685677  0.18535534  0.06481657     0.06400
C265        C  0.38024584  0.36890514  0.55010925     0.03440
C266        C  0.35941362  0.42168992  0.57488189    -0.12710
C267        C  0.37505483  0.44311595  0.62982823     0.00940
C268        C  0.42419297  0.41709662  0.65348127    -0.11240
C269        C  0.45041434  0.36673730  0.63185125     0.03430
C270        C  0.43018110  0.34649008  0.57746653    -0.10660
H271        H  0.33321838  0.44751667  0.54911844     0.09020
H272        H  0.44422635  0.43805391  0.68869019     0.06550
H273        H  0.45553496  0.31440045  0.55664849     0.06400
C274        C  0.55791590  0.36899561  0.36383462     0.03440
C275        C  0.57954024  0.42258289  0.34382264    -0.12710
C276        C  0.62970129  0.44916132  0.36616964     0.00940
C277        C  0.65149470  0.42525150  0.41741494    -0.11240
C278        C  0.63254030  0.37292527  0.44191149     0.03430
C279        C  0.57991684  0.35074215  0.41810751    -0.10660
H280        H  0.55545426  0.44392779  0.31197698     0.09020
H281        H  0.68132200  0.45038640  0.44014523     0.06550
H282        H  0.55609515  0.31855257  0.44160957     0.06400
C283        C  0.37599709  0.56016373  0.37292786     0.03440
C284        C  0.35472526  0.58334563  0.42505788    -0.12710
C285        C  0.37586188  0.63579030  0.44957271     0.00940
C286        C  0.43042527  0.65648625  0.42526593    -0.11240
C287        C  0.45407323  0.63525361  0.37174269     0.03430
C288        C  0.42869305  0.58379436  0.35271015    -0.10660
H289        H  0.32257815  0.55942766  0.44874820     0.09020
H290        H  0.45542851  0.68727909  0.44805788     0.06550
H291        H  0.45025681  0.56215689  0.31913682     0.06400
C292        C  0.38254801  0.45280381  0.36616556     0.03440
C293        C  0.43317079  0.42574634  0.34408546    -0.12710
C294        C  0.45032890  0.36914394  0.35997958     0.00940
C295        C  0.42261067  0.34666520  0.40997424    -0.11240
C296        C  0.37625421  0.37425653  0.44038474     0.03430
C297        C  0.35962687  0.42883975  0.41856736    -0.10660
H298        H  0.45821897  0.44754262  0.31240593     0.09020
H299        H  0.43882339  0.30707726  0.42646880     0.06550
H300        H  0.32796389  0.45323865  0.44169965     0.06400
C301        C  0.37336355  0.55451844  0.63498080     0.03440
C302        C  0.42199332  0.58355839  0.65707134    -0.12710
C303        C  0.44680720  0.63414003  0.63289474     0.00940
C304        C  0.42331607  0.65157349  0.57946881    -0.11240
C305        C  0.36863406  0.63133202  0.55890780     0.03430
C306        C  0.34759286  0.58007332  0.58586165    -0.10660
H307        H  0.44249119  0.56615039  0.69281489     0.09020
H308        H  0.44778767  0.68132753  0.55365566     0.06550
H309        H  0.31209562  0.55809473  0.56731802     0.06400
C310        C  0.63094085  0.37176924  0.55124419     0.03440
C311        C  0.65289492  0.42441331  0.57485839    -0.12710
C312        C  0.63265920  0.45067037  0.62654480     0.00940
C313        C  0.58004110  0.42564470  0.64894211    -0.11240
C314        C  0.55736434  0.37102768  0.62940275     0.03430
C315        C  0.58222192  0.34740922  0.57902091    -0.10660
H316        H  0.68830471  0.44497252  0.55271885     0.09020
H317        H  0.55559654  0.44767325  0.68140780     0.06550
H318        H  0.56282328  0.31011323  0.56177374     0.06400
C319        C  0.63723683  0.55666394  0.37197713     0.03440
C320        C  0.58559363  0.57976357  0.34969845    -0.12710
C321        C  0.56261912  0.63373074  0.36619867     0.00940
C322        C  0.58623447  0.65936224  0.41569543    -0.11240
C323        C  0.63654111  0.63887296  0.44347160     0.03430
C324        C  0.65743598  0.58404477  0.42323217    -0.10660
H325        H  0.56479848  0.55673672  0.31580844     0.09020
H326        H  0.56558616  0.69760984  0.43120281     0.06550
H327        H  0.68642721  0.56085112  0.44855952     0.06400
C328        C  0.63659550  0.56076006  0.62124065     0.03440
C329        C  0.58141696  0.57993796  0.64355708    -0.12710
C330        C  0.55754098  0.63515832  0.63061497     0.00940
C331        C  0.58345500  0.66365026  0.58291572    -0.11240
C332        C  0.63275404  0.64371271  0.55274596     0.03430
C333        C  0.65733254  0.59184430  0.57268061    -0.10660
H334        H  0.55885487  0.55333428  0.67408804     0.09020
H335        H  0.56334394  0.70120672  0.56863048     0.06550
H336        H  0.69278935  0.57648503  0.54905797     0.06400
C337        C  0.23945460  0.36940063  0.47577223    -0.05470
C338        C  0.27946459  0.34376606  0.51119044     0.00450
C339        C  0.25337284  0.30056227  0.54837949    -0.08120
C340        C  0.20451200  0.26948041  0.53178580    -0.05500
C341        C  0.16874195  0.29000725  0.49082334     0.00440
C342        C  0.18495858  0.34399576  0.46515151    -0.08030
C343        C  0.14727519  0.37712812  0.42533080     0.62350
H344        H  0.25121537  0.40711540  0.45225251     0.13040
H345        H  0.19007616  0.23321102  0.55693630     0.13060
C346        C  0.27067745  0.28723342  0.60779429     0.62580
F347        F  0.12752181  0.42537789  0.45319081    -0.22580
F348        F  0.10115089  0.34600349  0.40605839    -0.19910
F349        F  0.17894508  0.39395676  0.37803294    -0.19590
F350        F  0.31027293  0.32563538  0.62660957    -0.19640
F351        F  0.28923738  0.23152925  0.60989499    -0.19960
F352        F  0.22425967  0.29127891  0.64483340    -0.22640
C353        C  0.95071371  0.21325158  0.69454839    -0.05470
C354        C  0.00327251  0.23388583  0.67475309     0.00450
C355        C  0.05204438  0.20936757  0.69890214    -0.08120
C356        C  0.04611674  0.17426503  0.74834053    -0.05500
C357        C  0.99235223  0.15837214  0.77428690     0.00440
C358        C  0.94458410  0.17394082  0.73974669    -0.08030
C359        C  0.89074785  0.13983144  0.74020543     0.62350
H360        H  0.91466115  0.22227494  0.66891777     0.13040
H361        H  0.08363110  0.16723282  0.77181664     0.13060
C362        C  0.11011012  0.22303794  0.67213403     0.62580
F363        F  0.85213777  0.15533472  0.69953347    -0.22580
F364        F  0.86267384  0.14407719  0.79148150    -0.19910
F365        F  0.90806617  0.08579130  0.72766087    -0.19590
F366        F  0.11696982  0.28170878  0.66870584    -0.19640
F367        F  0.11362928  0.20031548  0.61807754    -0.19960
F368        F  0.15438829  0.20092383  0.70222603    -0.22640
C369        C  0.94524446  0.22294599  0.31128663    -0.05470
C370        C  0.99772394  0.22996263  0.33728537     0.00450
C371        C  0.04309348  0.19547699  0.31568583    -0.08120
C372        C  0.03683724  0.16378033  0.26442466    -0.05500
C373        C  0.98606018  0.16274613  0.23202272     0.00440
C374        C  0.93724928  0.18952807  0.26128732    -0.08030
C375        C  0.87408683  0.18653749  0.24703426     0.62350
H376        H  0.90849839  0.24271913  0.33217830     0.13040
H377        H  0.07476976  0.14436444  0.24671761     0.13060
C378        C  0.09854786  0.19091894  0.34752036     0.62580
F379        F  0.84556745  0.15960227  0.29155982    -0.22580
F380        F  0.86058641  0.15732340  0.19943803    -0.19910
F381        F  0.85256258  0.24112533  0.24171019    -0.19590
F382        F  0.09061731  0.15518146  0.39379300    -0.19640
F383        F  0.11580895  0.24422164  0.36600204    -0.19960
F384        F  0.14202777  0.16924526  0.31339249    -0.22640
C385        C  0.81504418  0.30988092  0.46582480    -0.05470
C386        C  0.82856546  0.27880489  0.51455557     0.00450
C387        C  0.79549025  0.29070370  0.56429325    -0.08120
C388        C  0.74695770  0.32676095  0.56151037    -0.05500
C389        C  0.72979144  0.35308848  0.50981713     0.00440
C390        C  0.77448021  0.35360332  0.46752946    -0.08030
C391        C  0.80196776  0.40750630  0.44640027     0.62350
H392        H  0.84569410  0.30971750  0.43026021     0.13040
H393        H  0.71837568  0.32828824  0.59823190     0.13060
C394        C  0.81166548  0.26493479  0.61965997     0.62580
F395        F  0.85449633  0.41595812  0.47191144    -0.22580
F396        F  0.77002468  0.45389874  0.45940942    -0.19910
F397        F  0.81083080  0.40225740  0.38852570    -0.19590
F398        F  0.85963795  0.29387356  0.63803987    -0.19640
F399        F  0.82336816  0.20769264  0.61114626    -0.19960
F400        F  0.76858922  0.26926744  0.66082490    -0.22640
C401        C  0.01864522  0.86812782  0.72934662    -0.05470
C402        C  0.98082738  0.84139082  0.76812963     0.00450
C403        C  0.94193750  0.79880830  0.74289276    -0.08120
C404        C  0.95629067  0.77373441  0.69050539    -0.05500
C405        C  0.00195944  0.79319929  0.65818783     0.00440
C406        C  0.03027408  0.84445661  0.67529402    -0.08030
C407        C  0.07711955  0.87207163  0.63909787     0.62350
H408        H  0.04429772  0.90373743  0.74206138     0.13040
H409        H  0.93048508  0.73887757  0.67373041     0.13060
C410        C  0.88796323  0.77209099  0.76831930     0.62580
F411        F  0.11769908  0.89649512  0.67331816    -0.22580
F412        F  0.05304349  0.91336554  0.60582986    -0.19910
F413        F  0.10505247  0.83289585  0.60450129    -0.19590
F414        F  0.84323051  0.78433020  0.73387123    -0.19640
F415        F  0.87568736  0.79134339  0.82160286    -0.19960
F416        F  0.89073073  0.71326038  0.76922333    -0.22640
C417        C  0.04122451  0.77004467  0.29997444    -0.05470
C418        C  0.98751511  0.76630993  0.32523295     0.00450
C419        C  0.94522745  0.80226604  0.30340050    -0.08120
C420        C  0.95629993  0.83566729  0.25438365    -0.05500
C421        C  0.00873552  0.83442487  0.22316943     0.00440
C422        C  0.05433716  0.80596866  0.25340878    -0.08030
C423        C  0.11827001  0.80907259  0.24307621     0.62350
H424        H  0.07524596  0.74710026  0.32027963     0.13040
H425        H  0.92026213  0.85628399  0.23679119     0.13060
C426        C  0.88763297  0.80497881  0.33223948     0.62580
F427        F  0.14123330  0.83442892  0.29026347    -0.22580
F428        F  0.13498057  0.83945485  0.19676551    -0.19910
F429        F  0.14149269  0.75504476  0.23791077    -0.19590
F430        F  0.89418407  0.82398216  0.38716368    -0.19640
F431        F  0.86237913  0.75164206  0.33157154    -0.19960
F432        F  0.85191493  0.84172690  0.30537771    -0.22640
C433        C  0.74445912  0.71241830  0.55780186    -0.05470
C434        C  0.72732153  0.68318280  0.50771985     0.00450
C435        C  0.76853857  0.68827768  0.46258715    -0.08120
C436        C  0.80524822  0.73631703  0.45905076    -0.05500
C437        C  0.82634551  0.76093009  0.50856218     0.00440
C438        C  0.79533957  0.74685602  0.55967862    -0.08030
C439        C  0.81405029  0.76634772  0.61708180     0.62350
H440        H  0.71656694  0.71089609  0.59512862     0.13040
H441        H  0.83262097  0.73905890  0.42196742     0.13060
C442        C  0.79965413  0.63640173  0.44493347     0.62580
F443        F  0.76992732  0.79581325  0.64362350    -0.22580
F444        F  0.86184977  0.80166419  0.61399872    -0.19910
F445        F  0.82641031  0.71849038  0.64863453    -0.19590
F446        F  0.80162177  0.63291989  0.38677764    -0.19640
F447        F  0.77312701  0.59035706  0.46900280    -0.19960
F448        F  0.85533857  0.63743554  0.46433782    -0.22640
C449        C  0.70129082  0.19771841  0.54207109    -0.05470
C450        C  0.74104417  0.18084980  0.49872480     0.00450
C451        C  0.73991331  0.21038533  0.44673440    -0.08120
C452        C  0.70246952  0.25767262  0.44171200    -0.05500
C453        C  0.66476005  0.27631272  0.48690046     0.00440
C454        C  0.65475060  0.23409483  0.52977655    -0.08030
C455        C  0.59957254  0.19800112  0.52724576     0.62350
H456        H  0.69589320  0.16881489  0.57780496     0.13040
H457        H  0.71084705  0.28656381  0.40678522     0.13060
C458        C  0.78393151  0.19659714  0.39982815     0.62580
F459        F  0.60543055  0.15655730  0.48531406    -0.22580
F460        F  0.55175263  0.22943282  0.51520449    -0.19910
F461        F  0.58939438  0.16946950  0.57772438    -0.19590
F462        F  0.78131289  0.13996070  0.38496125    -0.19640
F463        F  0.83897135  0.20571587  0.41815848    -0.19960
F464        F  0.77581010  0.22957593  0.35197484    -0.22640
C465        C  0.67744677  0.82296648  0.54074767    -0.05470
C466        C  0.71487321  0.84253884  0.49607370     0.00450
C467        C  0.70936180  0.81500577  0.44277230    -0.08120
C468        C  0.67582402  0.76429014  0.43901123    -0.05500
C469        C  0.64671988  0.74031407  0.48696065     0.00440
C470        C  0.63444351  0.78104378  0.53000447    -0.08030
C471        C  0.57530810  0.80773733  0.52869928     0.62350
H472        H  0.67190716  0.84994258  0.57804498     0.13040
H473        H  0.68508518  0.73656197  0.40382992     0.13060
C474        C  0.74218590  0.83634814  0.39116251     0.62580
F475        F  0.55980653  0.82815292  0.58194844    -0.22580
F476        F  0.53367890  0.76969147  0.51041296    -0.19910
F477        F  0.57634160  0.85326131  0.49108967    -0.19590
F478        F  0.79627261  0.85267537  0.40638744    -0.19640
F479        F  0.71421910  0.88272885  0.36916947    -0.19960
F480        F  0.74799297  0.79440511  0.34979047    -0.22640
C481        C  0.86605200  0.98506690  0.73565214    -0.05470
C482        C  0.83410373  0.01262577  0.77890320     0.00450
C483        C  0.78849701  0.05007217  0.75852359    -0.08120
C484        C  0.77307168  0.04947025  0.70101302    -0.05500
C485        C  0.79912796  0.01437776  0.66154749     0.00440
C486        C  0.85080685  0.98607136  0.67766460    -0.08030
C487        C  0.88896008  0.95334458  0.63541893     0.62350
H488        H  0.90215033  0.96071029  0.74667426     0.13040
H489        H  0.73805650  0.07563014  0.68680191     0.13060
C490        C  0.74805252  0.08741232  0.79339800     0.62580
F491        F  0.93237270  0.92464566  0.66169074    -0.22580
F492        F  0.91468808  0.99106529  0.59719708    -0.19910
F493        F  0.85701597  0.91283208  0.60660337    -0.19590
F494        F  0.75170114  0.07929648  0.85023329    -0.19640
F495        F  0.69214473  0.07569098  0.77990584    -0.19960
F496        F  0.75770546  0.14431447  0.78026133    -0.22640
C497        C  0.80382741  0.96205668  0.31223414    -0.05470
C498        C  0.75983828  0.00136833  0.32620108     0.00450
C499        C  0.75643246  0.04981548  0.29060367    -0.08120
C500        C  0.79386758  0.05452989  0.24172647    -0.05500
C501        C  0.83433244  0.01100243  0.22538672     0.00440
C502        C  0.84681335  0.97344972  0.27012573    -0.08030
C503        C  0.90447116  0.98151522  0.29654548     0.62350
H504        H  0.81492683  0.93225943  0.34503728     0.13040
H505        H  0.78489487  0.08776647  0.21150017     0.13060
C506        C  0.71022362  0.09427823  0.30076766     0.62580
F507        F  0.90204406  0.02530510  0.33638119    -0.22580
F508        F  0.94402038  0.99693041  0.25605360    -0.19910
F509        F  0.92196228  0.93245788  0.32318250    -0.19590
F510        F  0.69259256  0.09791740  0.35703176    -0.19640
F511        F  0.66230257  0.07978493  0.27185948    -0.19960
F512        F  0.72888974  0.14749290  0.28209387    -0.22640
C513        C  0.25363584  0.67544986  0.43803291    -0.05470
C514        C  0.27268851  0.65018812  0.48944494     0.00450
C515        C  0.22744730  0.64533399  0.53091303    -0.08120
C516        C  0.18401790  0.68728588  0.53371677    -0.05500
C517        C  0.16949606  0.71956950  0.48582452     0.00440
C518        C  0.20366773  0.71015913  0.43567242    -0.08030
C519        C  0.19066297  0.73730348  0.37939907     0.62350
H520        H  0.28077980  0.67290066  0.40038620     0.13040
H521        H  0.15305297  0.68487984  0.56880795     0.13060
C522        C  0.20428602  0.58649465  0.54414367     0.62580
F523        F  0.24001430  0.76143438  0.35607713    -0.22580
F524        F  0.14998724  0.77927024  0.38550044    -0.19910
F525        F  0.17136537  0.69639469  0.34197451    -0.19590
F526        F  0.21165183  0.57637144  0.60058867    -0.19640
F527        F  0.23146647  0.54600843  0.51062958    -0.19960
F528        F  0.14606919  0.58159877  0.53383191    -0.22640
C529        C  0.27939348  0.19694280  0.44545689    -0.05470
C530        C  0.29935309  0.16071733  0.48629865     0.00450
C531        C  0.35314105  0.17672663  0.51193194    -0.08120
C532        C  0.37391971  0.23381961  0.50669794    -0.05500
C533        C  0.34521676  0.27551704  0.47657059     0.00440
C534        C  0.30353520  0.25180299  0.43678864    -0.08030
C535        C  0.28236671  0.27980037  0.38378759     0.62350
H536        H  0.24521087  0.18127531  0.41873317     0.13040
H537        H  0.41374901  0.24506870  0.52484930     0.13060
C538        C  0.39055124  0.13474073  0.54368753     0.62580
F539        F  0.31042555  0.25675079  0.33744329    -0.22580
F540        F  0.29123418  0.33680632  0.38399269    -0.19670
F541        F  0.22435736  0.27033573  0.37704215    -0.19590
F542        F  0.40838879  0.09170325  0.50702285    -0.19640
F543        F  0.36034052  0.11168918  0.58960826    -0.19960
F544        F  0.43976322  0.16031174  0.56449072    -0.22640
C545        C  0.22933412  0.95503246  0.69919589    -0.05470
C546        C  0.20448185  0.99020076  0.66060714     0.00450
C547        C  0.14700276  0.01044613  0.67403634    -0.08120
C548        C  0.12732146  0.00972132  0.73115262    -0.05500
C549        C  0.15818891  0.98348673  0.77368547     0.00440
C550        C  0.20448939  0.94640458  0.75334818    -0.08030
C551        C  0.23425322  0.89985896  0.78509798     0.62350
H552        H  0.26873357  0.93368300  0.68676497     0.13040
H553        H  0.09002008  0.03339027  0.74207715     0.13060
C554        C  0.10703872  0.03765629  0.63124602     0.62580
F555        F  0.22478973  0.84988224  0.75530645    -0.22580
F556        F  0.21547938  0.89240970  0.83970256    -0.19910
F557        F  0.29275867  0.90988941  0.78618149    -0.19590
F558        F  0.10381810  0.00500654  0.58228471    -0.19640
F559        F  0.12665646  0.09180896  0.61740087    -0.19960
F560        F  0.05155690  0.04255278  0.65288810    -0.22640
C561        C  0.18173556  0.93593216  0.24887037    -0.05470
C562        C  0.14335641  0.97837545  0.23001103     0.00450
C563        C  0.12084735  0.01236838  0.27583720    -0.08120
C564        C  0.15684870  0.02387145  0.32211034    -0.05500
C565        C  0.20383234  0.98904527  0.33502858     0.00440
C566        C  0.21056595  0.94030551  0.30108784    -0.08030
C567        C  0.24513982  0.89204483  0.32261453     0.62350
H568        H  0.19869673  0.90581103  0.21846521     0.13040
H569        H  0.14134781  0.05303706  0.35490992     0.13060
C570        C  0.06022665  0.00053688  0.29827934     0.62580
F571        F  0.25474367  0.85092076  0.28121012    -0.22580
F572        F  0.21465790  0.86847475  0.36763245    -0.19910
F573        F  0.29671835  0.91251644  0.34203191    -0.19590
F574        F  0.03617486  0.95467043  0.27053204    -0.19640
F575        F  0.02762788  0.04871904  0.29293241    -0.19960
F576        F  0.05866955  0.98597365  0.35559112    -0.22640
C577        C  0.28183909  0.80769604  0.47005118    -0.05470
C578        C  0.25029364  0.82659039  0.51775145     0.00450
C579        C  0.26176422  0.79546592  0.56830365    -0.08120
C580        C  0.29618715  0.74471922  0.56511266    -0.05500
C581        C  0.33096940  0.72880858  0.51644874     0.00440
C582        C  0.32893826  0.77116546  0.47328608    -0.08030
C583        C  0.37256086  0.77785521  0.42746348     0.62350
H584        H  0.27653158  0.83020159  0.43078383     0.13040
H585        H  0.29051864  0.71412977  0.59920418     0.13060
C586        C  0.23538025  0.81009148  0.62494963     0.62580
F587        F  0.36966055  0.83013596  0.40027816    -0.22580
F588        F  0.36006567  0.73564037  0.38969076    -0.19910
F589        F  0.42674928  0.77552665  0.44923704    -0.19590
F590        F  0.20831135  0.86174601  0.62349890    -0.19640
F591        F  0.27699457  0.81320375  0.66551931    -0.19960
F592        F  0.19667803  0.76757150  0.64025755    -0.22640
C593        C  0.55418048  0.18855566  0.28677913    -0.05470
C594        C  0.50414531  0.16839535  0.26509067     0.00450
C595        C  0.45365026  0.19550998  0.28144051    -0.08120
C596        C  0.45319967  0.24253135  0.31989148    -0.05500
C597        C  0.50484533  0.26932134  0.33732643     0.00440
C598        C  0.55524822  0.23485679  0.32480292    -0.08030
C599        C  0.60780006  0.23801237  0.35821966     0.62350
H600        H  0.59224148  0.16428253  0.27662573     0.13040
H601        H  0.41355232  0.26493833  0.32658589     0.13060
C602        C  0.40275055  0.17731770  0.24964819     0.62580
F603        F  0.64533430  0.19383128  0.34870754    -0.22580
F604        F  0.59034502  0.23429675  0.41353755    -0.19910
F605        F  0.63700666  0.28684534  0.34523605    -0.19590
F606        F  0.38610200  0.12604298  0.27082502    -0.19640
F607        F  0.41761172  0.16809801  0.19390856    -0.19960
F608        F  0.36034289  0.21721485  0.25202258    -0.22640
C609        C  0.69096715  0.94238319  0.21571314    -0.05470
C610        C  0.65776524  0.98898833  0.20292995     0.00450
C611        C  0.67883769  0.02757450  0.16062393    -0.08120
C612        C  0.73479604  0.02148644  0.13716818    -0.05500
C613        C  0.77290741  0.97886861  0.15483259     0.00440
C614        C  0.74582825  0.93354138  0.19002733    -0.08030
C615        C  0.76834399  0.87411222  0.20424549     0.62350
H616        H  0.67161920  0.91001467  0.24326814     0.13040
H617        H  0.75018488  0.05547941  0.11082793     0.13060
C618        C  0.64281781  0.07686830  0.14044574     0.62580
F619        F  0.73607511  0.83279713  0.17719069    -0.22580
F620        F  0.76087352  0.86422715  0.26155288    -0.19910
F621        F  0.82446391  0.86448937  0.19072001    -0.19590
F622        F  0.61195993  0.10183215  0.18429800    -0.19640
F623        F  0.60504976  0.05685536  0.10050914    -0.19960
F624        F  0.67678355  0.11930391  0.11679408    -0.22640
C625        C  0.23066324  0.05968756  0.20883766    -0.05470
C626        C  0.21833890  0.01531161  0.16834873     0.00450
C627        C  0.26306189  0.97578000  0.16160009    -0.08120
C628        C  0.30049935  0.96534716  0.20642068    -0.05500
C629        C  0.31469152  0.00851527  0.24566339     0.00440
C630        C  0.27660175  0.05641261  0.24839474    -0.08030
C631        C  0.27781184  0.10115569  0.29581363     0.62350
H632        H  0.19887244  0.09249190  0.21590700     0.13040
H633        H  0.33008656  0.93013691  0.20069673     0.13060
C634        C  0.28813017  0.96254545  0.10464052     0.62580
F635        F  0.22762091  0.10526394  0.32597079    -0.22580
F636        F  0.28453798  0.15401181  0.27174826    -0.19910
F637        F  0.31891936  0.08986928  0.33570825    -0.19590
F638        F  0.26518374  0.99588291  0.06275504    -0.19640
F639        F  0.27958337  0.90489861  0.09499761    -0.19960
F640        F  0.34635726  0.97505097  0.10435015    -0.22640
C641        C  0.54398310  0.81355835  0.27010695    -0.05470
C642        C  0.48917725  0.83095244  0.25786964     0.00450
C643        C  0.44346993  0.80039834  0.28238371    -0.08120
C644        C  0.45391585  0.75161397  0.31584420    -0.05500
C645        C  0.50908118  0.72942012  0.32752533     0.00440
C646        C  0.55571855  0.76418866  0.30245597    -0.08030
C647        C  0.61966076  0.75516129  0.30246695     0.62350
H648        H  0.57913375  0.84054508  0.25430876     0.13040
H649        H  0.41831924  0.72332552  0.32106030     0.13060
C650        C  0.38354878  0.82061961  0.27163541     0.62580
F651        F  0.64347564  0.80186657  0.32915323    -0.22580
F652        F  0.64169953  0.75335908  0.24732513    -0.19910
F653        F  0.63682424  0.70719250  0.32855638    -0.19590
F654        F  0.37465903  0.82412858  0.21392381    -0.19640
F655        F  0.37797280  0.87444400  0.29437756    -0.19960
F656        F  0.34208557  0.78530238  0.29576257    -0.22640
C657        C  0.46703576  0.27507970  0.18771983    -0.05470
C658        C  0.51854101  0.25567120  0.16603804     0.00450
C659        C  0.56759422  0.28079474  0.19144220    -0.08120
C660        C  0.56264181  0.32124150  0.23764118    -0.05500
C661        C  0.50946038  0.33862741  0.26236074     0.00440
C662        C  0.46255543  0.32018691  0.22677377    -0.08030
C663        C  0.41015387  0.35212579  0.21456801     0.62350
H664        H  0.42879340  0.26268219  0.16464273     0.13040
H665        H  0.60088646  0.33574887  0.25771977     0.13060
C666        C  0.62490061  0.26830691  0.16705225     0.62580
F667        F  0.40836991  0.36579452  0.15725243    -0.22580
F668        F  0.41002061  0.40082969  0.24357625    -0.19910
F669        F  0.36296422  0.31855963  0.22786652    -0.19590
F670        F  0.63086166  0.30228013  0.12029123    -0.19640
F671        F  0.62806535  0.21156653  0.15159761    -0.19960
F672        F  0.66794925  0.28040258  0.20480517    -0.22640
C673        C  0.70145185  0.23491077  0.04861305    -0.05470
C674        C  0.66149848  0.20759357  0.01552109     0.00450
C675        C  0.67176360  0.14798694  0.00239962    -0.08120
C676        C  0.72809529  0.12748370  0.00463917    -0.05500
C677        C  0.77153158  0.15943586  0.02950174     0.00440
C678        C  0.75169883  0.20734810  0.06440428    -0.08030
C679        C  0.78204562  0.23577451  0.11348130     0.62350
H680        H  0.69673535  0.27963582  0.05771728     0.13040
H681        H  0.73723232  0.08718497  0.98565699     0.13060
C682        C  0.62700325  0.10550672  0.98145880     0.62580
F683        F  0.75324491  0.22113307  0.16333399    -0.22580
F684        F  0.78240942  0.29477403  0.10826789    -0.19910
F685        F  0.83700913  0.21944227  0.11840856    -0.19590
F686        F  0.61983631  0.11201007  0.92357128    -0.19640
F687        F  0.57511983  0.11176906  0.01007031    -0.19960
F688        F  0.64431983  0.05029959  0.99167254    -0.22640
C689        C  0.25848378  0.12911476  0.02613793    -0.05470
C690        C  0.22027696  0.15167171  0.98681959     0.00450
C691        C  0.24754095  0.19105369  0.94582929    -0.08120
C692        C  0.30097463  0.21735530  0.95729727    -0.05500
C693        C  0.33529502  0.19905283  0.00017169     0.00440
C694        C  0.31556679  0.14974867  0.03151579    -0.08030
C695        C  0.35195357  0.12355455  0.07670282     0.62350
H696        H  0.24309334  0.09980140  0.05752065     0.13040
H697        H  0.31760316  0.25126003  0.93007166     0.13060
C698        C  0.22486275  0.21206416  0.89026505     0.62580
F699        F  0.32011377  0.09275463  0.11654508    -0.22580
F700        F  0.37886133  0.16721567  0.10487609    -0.19910
F701        F  0.39220607  0.08772688  0.05204310    -0.19590
F702        F  0.21726689  0.27019542  0.89299019    -0.19640
F703        F  0.17526192  0.18659796  0.87325797    -0.19960
F704        F  0.26643289  0.20227065  0.84915237    -0.22640
C705        C  0.55350473  0.28939507  0.80761973    -0.05470
C706        C  0.49931196  0.27912488  0.83124463     0.00450
C707        C  0.45389836  0.31138828  0.81060812    -0.08120
C708        C  0.46317076  0.34806407  0.76332172    -0.05500
C709        C  0.51398111  0.34658468  0.72890083     0.00440
C710        C  0.56313240  0.32151825  0.75741947    -0.08030
C711        C  0.62723451  0.32452674  0.74052210     0.62350
H712        H  0.58953527  0.27224907  0.83020772     0.13040
H713        H  0.42728471  0.37223299  0.75015182     0.13060
C714        C  0.39509340  0.30495202  0.83818726     0.62580
F715        F  0.65290261  0.36663225  0.77159845    -0.22580
F716        F  0.64047408  0.33366313  0.68453606    -0.19910
F717        F  0.65452643  0.27464808  0.75450591    -0.19590
F718        F  0.39454977  0.33000911  0.89150491    -0.19640
F719        F  0.38118055  0.24742856  0.84287016    -0.19960
F720        F  0.35378384  0.33020562  0.80642446    -0.22640
C721        C  0.46241926  0.19482928  0.72949863    -0.05470
C722        C  0.51491402  0.16915942  0.73454271     0.00450
C723        C  0.56129906  0.19117496  0.70014676    -0.08120
C724        C  0.55356382  0.24013353  0.66512960    -0.05500
C725        C  0.50160294  0.27073130  0.66362391     0.00440
C726        C  0.45395179  0.24126772  0.69240988    -0.08030
C727        C  0.39284603  0.25262881  0.67925152     0.62350
H728        H  0.42644617  0.17460628  0.75176996     0.13040
H729        H  0.59037260  0.25746171  0.64274862     0.13060
C730        C  0.62068458  0.16571172  0.70461140     0.62580
F731        F  0.35468054  0.21228789  0.70171028    -0.22580
F732        F  0.38934503  0.24973988  0.62166809    -0.19910
F733        F  0.37620719  0.30489956  0.69943453    -0.19590
F734        F  0.62261547  0.11133727  0.68155683    -0.19640
F735        F  0.63433164  0.16354423  0.76144668    -0.19960
F736        F  0.66225271  0.19816277  0.67641760    -0.22640
C737        C  0.72764840  0.97668140  0.87977487    -0.05470
C738        C  0.77291131  0.96305706  0.84185022     0.00450
C739        C  0.75422893  0.93102829  0.79168094    -0.08120
C740        C  0.70256403  0.94485704  0.76766405    -0.05500
C741        C  0.66054296  0.96808059  0.80113793     0.00440
C742        C  0.67028817  0.97231426  0.86133669    -0.08030
C743        C  0.62290457  0.95853900  0.90508666     0.62350
H744        H  0.73592535  0.98980587  0.92280423     0.13040
H745        H  0.69540323  0.93696125  0.72315104     0.13060
C746        C  0.78569812  0.88497385  0.76002870     0.62580
F747        F  0.64559722  0.94532591  0.95733456    -0.22580
F748        F  0.59232879  0.91091623  0.88749643    -0.19910
F749        F  0.58544336  0.00321870  0.91259801    -0.19590
F750        F  0.84047001  0.88042242  0.77800924    -0.19640
F751        F  0.78671772  0.89410369  0.70211858    -0.19960
F752        F  0.75642222  0.83414333  0.76892014    -0.22640
C753        C  0.29914814  0.05201143  0.76399843    -0.05470
C754        C  0.33819187  0.02418996  0.79636375     0.00450
C755        C  0.32257780  0.01654866  0.85533005    -0.08120
C756        C  0.26388016  0.00900286  0.87096810    -0.05500
C757        C  0.22119130  0.02907512  0.83526014     0.00440
C758        C  0.24428529  0.06335124  0.78706627    -0.08030
C759        C  0.21551117  0.11190220  0.75784152     0.62350
H760        H  0.31272652  0.06895788  0.72289371     0.13040
H761        H  0.25268057  0.99289856  0.91262058     0.13060
C762        C  0.36390341  0.03545620  0.90105473     0.62580
F763        F  0.24995502  0.16007434  0.75947553    -0.22580
F764        F  0.16450543  0.12370094  0.78350349    -0.19910
F765        F  0.20809072  0.10094054  0.70110546    -0.19590
F766        F  0.39413973  0.08367040  0.88309187    -0.19640
F767        F  0.40237696  0.99312096  0.91285417    -0.19960
F768        F  0.33462014  0.05007693  0.95064899    -0.22640
C769        C  0.55803326  0.75683922  0.68008492    -0.05470
C770        C  0.50587482  0.73219433  0.66069341     0.00450
C771        C  0.45752886  0.76797449  0.67256552    -0.08120
C772        C  0.45810558  0.80850999  0.71698232    -0.05500
C773        C  0.50867771  0.83056082  0.73868015     0.00440
C774        C  0.56020549  0.80570572  0.71669921    -0.08030
C775        C  0.61745817  0.83234696  0.72780285     0.62350
H776        H  0.59749652  0.73502007  0.67003509     0.13040
H777        H  0.41851918  0.82960167  0.72935856     0.13060
C778        C  0.40783692  0.77158375  0.63447778     0.62580
F779        F  0.66173229  0.79458658  0.71748411    -0.22580
F780        F  0.61994290  0.84998891  0.78383459    -0.19910
F781        F  0.62423106  0.87787993  0.69118872    -0.19590
F782        F  0.37068553  0.72789419  0.64944320    -0.19640
F783        F  0.42636532  0.76980011  0.57851921    -0.19960
F784        F  0.37989776  0.82320233  0.64031271    -0.22640
C785        C  0.45001702  0.65377107  0.24424722    -0.05470
C786        C  0.50453406  0.64735533  0.26804649     0.00450
C787        C  0.54884166  0.66330491  0.22756684    -0.08120
C788        C  0.54105303  0.70573542  0.18614732    -0.05500
C789        C  0.48675946  0.72031039  0.16975132     0.00440
C790        C  0.44058874  0.69026260  0.19776013    -0.08030
C791        C  0.38031056  0.69462286  0.17982172     0.62350
H792        H  0.41228789  0.63814419  0.26640400     0.13040
H793        H  0.57684431  0.71934456  0.15915626     0.13060
C794        C  0.59605454  0.62396794  0.21588906     0.62580
F795        F  0.34356330  0.70210642  0.22602113    -0.22580
F796        F  0.36561354  0.64417252  0.15291163    -0.19910
F797        F  0.37548695  0.74079107  0.14471836    -0.19590
F798        F  0.57380349  0.56947450  0.21022555    -0.19640
F799        F  0.62935820  0.62926657  0.26119108    -0.19960
F800        F  0.62869581  0.63668131  0.16744452    -0.22640
C801        C  0.54410452  0.71096096  0.81050288    -0.05470
C802        C  0.49326860  0.73400884  0.83187028     0.00450
C803        C  0.44231506  0.71493414  0.80491349    -0.08120
C804        C  0.44491366  0.67807052  0.75623252    -0.05500
C805        C  0.49729983  0.65933780  0.73082676     0.00440
C806        C  0.54510445  0.66899937  0.76720032    -0.08030
C807        C  0.59294943  0.62816395  0.76871834     0.62350
H808        H  0.58290000  0.72019165  0.83368113     0.13040
H809        H  0.40558584  0.66858535  0.73447419     0.13060
C810        C  0.38440886  0.73054545  0.82797679     0.62580
F811        F  0.62548955  0.63311455  0.81713718    -0.22580
F812        F  0.62727834  0.63999705  0.72280518    -0.19910
F813        F  0.57060908  0.57334002  0.76802832    -0.19590
F814        F  0.38604010  0.78340345  0.85456790    -0.19640
F815        F  0.36783677  0.68820262  0.86564662    -0.19960
F816        F  0.34490552  0.73317073  0.78499143    -0.22640
C817        C  0.29373111  0.76608064  0.94136603    -0.05470
C818        C  0.33304308  0.79526486  0.97295427     0.00450
C819        C  0.32089263  0.85440417  0.98562597    -0.08120
C820        C  0.26350762  0.87362837  0.98338907    -0.05500
C821        C  0.22020440  0.83905261  0.96171079     0.00440
C822        C  0.24207695  0.79141864  0.92770866    -0.08030
C823        C  0.21733947  0.76910787  0.87382464     0.62350
H824        H  0.30269148  0.72337809  0.92711401     0.13040
H825        H  0.25306674  0.91607221  0.99648196     0.13060
C826        C  0.36757472  0.89788436  0.99938349     0.62580
F827        F  0.25275765  0.78662138  0.82974578    -0.22580
F828        F  0.16372685  0.78935811  0.86736056    -0.19910
F829        F  0.21573997  0.71019930  0.87078782    -0.19590
F830        F  0.41268835  0.89294865  0.96058260    -0.19640
F831        F  0.38724965  0.89035967  0.05388668    -0.19960
F832        F  0.34742208  0.95266971  0.99600348    -0.22640
C833        C  0.73686097  0.84142295  0.04848727    -0.05470
C834        C  0.77027934  0.83463845  0.99795290     0.00450
C835        C  0.73745781  0.80765864  0.95285645    -0.08120
C836        C  0.68932997  0.77254764  0.96593402    -0.05500
C837        C  0.66020948  0.77490027  0.01754597     0.00440
C838        C  0.67944308  0.81944846  0.05466242    -0.08030
C839        C  0.63848233  0.84936616  0.09577004     0.62350
H840        H  0.75418896  0.86552787  0.08294821     0.13040
H841        H  0.66846135  0.74894876  0.93213828     0.13060
C842        C  0.74147226  0.82092883  0.89036134     0.62580
F843        F  0.66273838  0.89920744  0.11502754    -0.22580
F844        F  0.62455433  0.81436214  0.14122246    -0.19910
F845        F  0.58907655  0.86611136  0.06980839    -0.19590
F846        F  0.72697737  0.77448852  0.85706495    -0.19640
F847        F  0.79418018  0.83889439  0.87279488    -0.19960
F848        F  0.70179741  0.86181540  0.87983129    -0.22640
C849        C  0.20684695  0.46196998  0.27189674    -0.05470
C850        C  0.16982258  0.50173650  0.29360443     0.00450
C851        C  0.18592037  0.53192816  0.34422490    -0.08120
C852        C  0.24313917  0.52909499  0.36263048    -0.05500
C853        C  0.28343401  0.49069627  0.33897081     0.00440
C854        C  0.25909062  0.45077204  0.29764303    -0.08030
C855        C  0.28184373  0.39430469  0.27772086     0.62350
H856        H  0.19231853  0.43539854  0.23704452     0.13040
H857        H  0.25605695  0.56056661  0.39250805     0.13060
C858        C  0.14325422  0.56641643  0.38016119     0.62580
F859        F  0.24173677  0.35178300  0.28957819    -0.22580
F860        F  0.33079436  0.38059936  0.30379724    -0.19910
F861        F  0.29017227  0.39430544  0.21949259    -0.19590
F862        F  0.10392699  0.53009114  0.40675667    -0.19640
F863        F  0.11496580  0.60520617  0.34692272    -0.19960
F864        F  0.16925960  0.59631501  0.42275011    -0.22640
C865        C  0.94370813  0.73835423  0.17867131    -0.05470
C866        C  0.99617032  0.76163160  0.15500098     0.00450
C867        C  0.04361679  0.72397654  0.16376970    -0.08120
C868        C  0.04241971  0.68188372  0.20638437    -0.05500
C869        C  0.99181726  0.66123356  0.23095162     0.00440
C870        C  0.94110271  0.68828868  0.21409289    -0.08030
C871        C  0.88494903  0.66386001  0.23467053     0.62350
H872        H  0.90479981  0.76211302  0.17293933     0.13040
H873        H  0.08130789  0.65896163  0.21558447     0.13060
C874        C  0.09174470  0.71943154  0.12248819     0.62580
F875        F  0.83982265  0.69940170  0.22265355    -0.22580
F876        F  0.88715648  0.65617050  0.29277346    -0.19910
F877        F  0.87603003  0.61136688  0.20883517    -0.19590
F878        F  0.12648769  0.76555270  0.12910731    -0.19640
F879        F  0.06847511  0.71689281  0.07012895    -0.19960
F880        F  0.12443152  0.67081779  0.12851986    -0.22640
C881        C  0.06239843  0.24892047  0.17940812    -0.05470
C882        C  0.00947700  0.22819604  0.15702602     0.00450
C883        C  0.96611205  0.26944097  0.16066032    -0.08120
C884        C  0.96224917  0.30335180  0.21021121    -0.05500
C885        C  0.01292150  0.32200120  0.23679752     0.00440
C886        C  0.06455794  0.29535147  0.21894054    -0.08030
C887        C  0.12212885  0.31595808  0.23960808     0.62350
H888        H  0.10047698  0.22375210  0.17341969     0.13040
H889        H  0.92449036  0.32978073  0.21522901     0.13060
C890        C  0.95642671  0.30389718  0.10779722     0.62580
F891        F  0.15510626  0.26991968  0.25445451    -0.22580
F892        F  0.11719088  0.35071912  0.28695070    -0.19910
F893        F  0.14945993  0.34651732  0.19652943    -0.19590
F894        F  0.89860000  0.30567455  0.09902155    -0.19640
F895        F  0.98567924  0.28129392  0.06128257    -0.19960
F896        F  0.97618148  0.35963842  0.11367191    -0.22640
C897        C  0.80061542  0.45368738  0.26130324    -0.05470
C898        C  0.84065224  0.49057196  0.28388804     0.00450
C899        C  0.82945002  0.50989753  0.34175524    -0.08120
C900        C  0.77167155  0.51242116  0.36060848    -0.05500
C901        C  0.72891105  0.48026194  0.33585774     0.00440
C902        C  0.75010874  0.44043768  0.29208329    -0.08030
C903        C  0.72541380  0.38309475  0.27632624     0.62350
H904        H  0.81269223  0.42839716  0.22415404     0.13040
H905        H  0.75951767  0.53711726  0.39582760     0.13060
C906        C  0.87559123  0.52454870  0.38562349     0.62580
F907        F  0.76512549  0.34117265  0.28694104    -0.22580
F908        F  0.71288410  0.38129861  0.21921179    -0.19910
F909        F  0.67784442  0.37062538  0.30729484    -0.19590
F910        F  0.90460576  0.57400352  0.37070839    -0.19640
F911        F  0.91378497  0.48091161  0.39369367    -0.19960
F912        F  0.85214900  0.53188862  0.43899397    -0.22640
C913        C  0.97543687  0.73054834  0.85502912    -0.05470
C914        C  0.01292655  0.77150197  0.82997990     0.00450
C915        C  0.05213176  0.74787567  0.78632996    -0.08120
C916        C  0.03924789  0.69502365  0.76002531    -0.05500
C917        C  0.99865431  0.65767270  0.78226632     0.00440
C918        C  0.97148920  0.67329973  0.83523730    -0.08030
C919        C  0.93545444  0.63045375  0.86960285     0.62350
H920        H  0.94750099  0.74256177  0.88908330     0.13040
H921        H  0.06437336  0.68073928  0.72347723     0.13060
C922        C  0.10804676  0.77333589  0.76325499     0.62580
F923        F  0.90316435  0.65672510  0.91092044    -0.22580
F924        F  0.97008977  0.59279718  0.89775317    -0.19910
F925        F  0.89890928  0.60068841  0.83420481    -0.19590
F926        F  0.15207876  0.73823927  0.77851156    -0.19640
F927        F  0.11889252  0.82815836  0.78115244    -0.19960
F928        F  0.10933469  0.77271889  0.70489996    -0.22640
C929        C  0.96450165  0.30433735  0.78328594    -0.05470
C930        C  0.02045500  0.32099192  0.77171094     0.00450
C931        C  0.06209525  0.29501938  0.80551625    -0.08120
C932        C  0.04658726  0.25184620  0.84519067    -0.05500
C933        C  0.99072248  0.22695844  0.84919578     0.00440
C934        C  0.94840515  0.26289946  0.82355139    -0.08030
C935        C  0.88544044  0.26279038  0.83508264     0.62350
H936        H  0.93189573  0.32928667  0.76441881     0.13040
H937        H  0.08190316  0.23194630  0.86512560     0.13060
C938        C  0.12415629  0.31018204  0.80069616     0.62580
F939        F  0.87027250  0.31392757  0.86052823    -0.22580
F940        F  0.87032746  0.22041380  0.87002996    -0.19910
F941        F  0.85560397  0.25625395  0.78519751    -0.19590
F942        F  0.14063282  0.33118394  0.85209810    -0.19640
F943        F  0.13477640  0.34993733  0.75912841    -0.19960
F944        F  0.15610614  0.26241714  0.78843368    -0.22640
C945        C  0.74850601  0.43896544  0.68271125    -0.05470
C946        C  0.73525795  0.48641759  0.64678749     0.00450
C947        C  0.78464003  0.52132506  0.63442596    -0.08120
C948        C  0.83321199  0.52064086  0.66974276    -0.05500
C949        C  0.84039492  0.48144294  0.71398606     0.00440
C950        C  0.79830041  0.43717410  0.71737196    -0.08030
C951        C  0.80801141  0.38638581  0.75438053     0.62350
H952        H  0.71565104  0.40689589  0.68958526     0.13040
H953        H  0.86875483  0.54952677  0.65943739     0.13060
C954        C  0.79693375  0.54339639  0.57627777     0.62580
F955        F  0.76023750  0.35136874  0.76005127    -0.22580
F956        F  0.82426215  0.40393769  0.80797529    -0.19910
F957        F  0.85050400  0.35526852  0.72862792    -0.19590
F958        F  0.78977138  0.60170498  0.57608914    -0.19640
F959        F  0.76168038  0.51577991  0.53918438    -0.19960
F960        F  0.85270143  0.53179966  0.55864152    -0.22640
C961        C  0.73478740  0.54830677  0.19482049    -0.05470
C962        C  0.71215069  0.50789069  0.15858982     0.00450
C963        C  0.65952777  0.47944545  0.17625948    -0.08120
C964        C  0.64228914  0.48128780  0.23364887    -0.05500
C965        C  0.66682179  0.51854738  0.27325258     0.00440
C966        C  0.71089791  0.55800964  0.24943547    -0.08030
C967        C  0.73748013  0.61056353  0.27746258     0.62350
H968        H  0.77032473  0.57470733  0.17923418     0.13040
H969        H  0.61243725  0.44952987  0.24687279     0.13060
C970        C  0.62014118  0.44630656  0.13625269     0.62580
F971        F  0.73210263  0.65759024  0.24236119    -0.22580
F972        F  0.79458379  0.60195570  0.28390135    -0.19910
F973        F  0.71384505  0.62463015  0.32910796    -0.19590
F974        F  0.65027507  0.40348603  0.10909372    -0.19640
F975        F  0.59808238  0.48325826  0.09663473    -0.19960
F976        F  0.57355630  0.42102617  0.16407821    -0.22640
C977        C  0.74641622  0.54547637  0.78840612    -0.05470
C978        C  0.72452251  0.50463514  0.82595888     0.00450
C979        C  0.66921696  0.48026662  0.81262047    -0.08120
C980        C  0.64817757  0.48580961  0.75699202    -0.05500
C981        C  0.67280823  0.52279620  0.71622103     0.00440
C982        C  0.71802884  0.56078620  0.73838276    -0.08030
C983        C  0.73991015  0.61802812  0.71395568     0.62350
H984        H  0.78448230  0.56902203  0.79991156     0.13040
H985        H  0.61178776  0.46081107  0.74608659     0.13060
C986        C  0.63048883  0.44881774  0.85635127     0.62580
F987        F  0.72585059  0.66149755  0.75164387    -0.22580
F988        F  0.71770627  0.63063642  0.66226797    -0.19910
F989        F  0.79885363  0.61994462  0.70851394    -0.19590
F990        F  0.60951736  0.48612221  0.89726179    -0.19640
F991        F  0.66061857  0.40569972  0.88164527    -0.19960
F992        F  0.58242840  0.42433286  0.83218593    -0.22640
C993        C  0.83411223  0.73985723  0.94661480    -0.05470
C994        C  0.84856756  0.76684488  0.99814846     0.00450
C995        C  0.83670860  0.73089686  0.04592279    -0.08120
C996        C  0.78297804  0.70137204  0.04696883    -0.05500
C997        C  0.76423818  0.67595115  0.99583622     0.00440
C998        C  0.79205458  0.69548217  0.94442262    -0.08030
C999        C  0.77767820  0.66857412  0.88749073     0.62350
H1000       H  0.84886952  0.75854591  0.90780104     0.13040
H1001       H  0.77000309  0.68006091  0.08618426     0.13060
C1002       C  0.88370857  0.68835421  0.05946726     0.62580
F1003       F  0.80035533  0.69924180  0.84207633    -0.22580
F1004       F  0.71891335  0.66414345  0.88208279    -0.19910
F1005       F  0.80047133  0.61505475  0.88413287    -0.19590
F1006       F  0.87270863  0.66375150  0.11165931    -0.19640
F1007       F  0.93761786  0.71258359  0.05918307    -0.19960
F1008       F  0.88535148  0.64479647  0.01967872    -0.22640
C1009       C  0.86677548  0.26796406  0.99324217    -0.05470
C1010       C  0.83009954  0.22344289  0.97786330     0.00450
C1011       C  0.78095521  0.24325018  0.94490971    -0.08120
C1012       C  0.75923730  0.29861797  0.95273899    -0.05500
C1013       C  0.79183762  0.34043874  0.97817801     0.00440
C1014       C  0.85094069  0.32638916  0.98834488    -0.08030
C1015       C  0.89887799  0.37142287  0.98676857     0.62350
H1016       H  0.90911798  0.25709639  0.00495350     0.13040
H1017       H  0.71859363  0.31015651  0.93465012     0.13060
C1018       C  0.75471262  0.21285639  0.89521001     0.62580
F1019       F  0.95194326  0.34682732  0.97821680    -0.22580
F1020       F  0.89997270  0.40209890  0.03715575    -0.19910
F1021       F  0.89125086  0.40843995  0.94180357    -0.19590
F1022       F  0.69726292  0.20116218  0.90315970    -0.19640
F1023       F  0.78307464  0.16414023  0.88501705    -0.19960
F1024       F  0.75992840  0.24678027  0.84723892    -0.22640
C1025       C  0.26149700  0.55376634  0.69804125    -0.05470
C1026       C  0.27917052  0.50576602  0.66429247     0.00450
C1027       C  0.23752907  0.46066340  0.66131605    -0.08120
C1028       C  0.19768797  0.45410280  0.70669359    -0.05500
C1029       C  0.18134440  0.50028845  0.74175996     0.00440
C1030       C  0.21285640  0.55200247  0.73521716    -0.08030
C1031       C  0.19556184  0.60464107  0.76855950     0.62350
H1032       H  0.28934716  0.59109088  0.69934685     0.13040
H1033       H  0.16693607  0.41975392  0.70245914     0.13060
C1034       C  0.20896599  0.44477777  0.60598760     0.62580
F1035       F  0.23398266  0.64962970  0.76019225    -0.22580
F1036       F  0.19264876  0.59217461  0.82600223    -0.19910
F1037       F  0.14244793  0.62171938  0.75139883    -0.19590
F1038       F  0.19392623  0.38772205  0.60577436    -0.19640
F1039       F  0.24246311  0.45616652  0.55941841    -0.19960
F1040       F  0.15896687  0.47541531  0.60060211    -0.22640
C1041       C  0.34058325  0.48772684  0.18006083    -0.05470
C1042       C  0.28794466  0.51596691  0.17031293     0.00450
C1043       C  0.27530998  0.56158281  0.20769267    -0.08120
C1044       C  0.30998147  0.56992389  0.25702775    -0.05500
C1045       C  0.35322496  0.52936656  0.27277934     0.00440
C1046       C  0.37724002  0.50038696  0.22525140    -0.08030
C1047       C  0.43926091  0.51021825  0.20371079     0.62350
H1048       H  0.35736857  0.45850952  0.14834229     0.13040
H1049       H  0.29637571  0.60119297  0.28842476     0.13060
C1050       C  0.22562174  0.59986741  0.19505266     0.62580
F1051       F  0.45664465  0.46717397  0.16697193    -0.22580
F1052       F  0.47890302  0.51285265  0.24571042    -0.19910
F1053       F  0.44239388  0.56041228  0.17313647    -0.19590
F1054       F  0.17479435  0.56965027  0.19785372    -0.19640
F1055       F  0.23152083  0.61939833  0.14026162    -0.19960
F1056       F  0.22235177  0.64579684  0.23222778    -0.22640
C1057       C  0.17617760  0.67892588  0.96950984    -0.05470
C1058       C  0.22435530  0.67162726  0.00472620     0.00450
C1059       C  0.23201103  0.71544317  0.04578140    -0.08120
C1060       C  0.19613051  0.76356167  0.04619814    -0.05500
C1061       C  0.15336837  0.77396029  0.00514081     0.00440
C1062       C  0.13757270  0.72445888  0.97329035    -0.08030
C1063       C  0.07793675  0.70661652  0.95492921     0.62350
H1064       H  0.16526115  0.64587159  0.93887127     0.13040
H1065       H  0.20808050  0.79890645  0.07378008     0.13060
C1066       C  0.28154146  0.72006581  0.08405097     0.62580
F1067       F  0.06495165  0.65194275  0.97456181    -0.22580
F1068       F  0.07899628  0.70418878  0.89663992    -0.19910
F1069       F  0.03420554  0.74053335  0.97576416    -0.19590
F1070       F  0.32215204  0.68027253  0.06900705    -0.19640
F1071       F  0.26325537  0.71484301  0.13993363    -0.19960
F1072       F  0.30570480  0.77405866  0.07981851    -0.22640
C1073       C  0.22990982  0.29559825  0.04434738    -0.05470
C1074       C  0.21055768  0.33366860  0.00406436     0.00450
C1075       C  0.15417582  0.32073768  0.98258934    -0.08120
C1076       C  0.13257557  0.26351904  0.98444314    -0.05500
C1077       C  0.15660374  0.22162644  0.01897336     0.00440
C1078       C  0.19939381  0.24444728  0.05819966    -0.08030
C1079       C  0.21550199  0.22061738  0.11589678     0.62350
H1080       H  0.26561160  0.30921719  0.07020908     0.13040
H1081       H  0.09585083  0.25271459  0.96014209     0.13060
C1082       C  0.11257515  0.36707157  0.96526918     0.62580
F1083       F  0.20187006  0.26078581  0.15640367    -0.22580
F1084       F  0.27376343  0.21315553  0.11887170    -0.19910
F1085       F  0.18859039  0.17056185  0.13130415    -0.19590
F1086       F  0.13869327  0.40623932  0.92930025    -0.19640
F1087       F  0.09259075  0.39517478  0.01347625    -0.19960
F1088       F  0.06531859  0.34460261  0.93798974    -0.22640
C1089       C  0.32491335  0.53930595  0.81411805    -0.05470
C1090       C  0.28536540  0.49636993  0.83377661     0.00450
C1091       C  0.28713783  0.44362655  0.80397092    -0.08120
C1092       C  0.32122527  0.43825029  0.75299810    -0.05500
C1093       C  0.35347022  0.48524325  0.73003102     0.00440
C1094       C  0.36738315  0.52717619  0.77147730    -0.08030
C1095       C  0.42625907  0.52306454  0.79807570     0.62350
H1096       H  0.33235899  0.57592082  0.84154904     0.13040
H1097       H  0.31507840  0.40104463  0.72619851     0.13060
C1098       C  0.24852420  0.39572973  0.82370046     0.62580
F1099       F  0.42387040  0.48339748  0.84175143    -0.22580
F1100       F  0.44241777  0.57527667  0.82071732    -0.19910
F1101       F  0.46840244  0.50535552  0.76010403    -0.19590
F1102       F  0.19410238  0.41735405  0.82980809    -0.19640
F1103       F  0.26633762  0.37571660  0.87553061    -0.19960
F1104       F  0.24747665  0.35080372  0.78519726    -0.22640
loop_ 
_geom_bond_atom_site_label_1 
_geom_bond_atom_site_label_2 
_geom_bond_distance 
_geom_bond_site_symmetry_2 
_ccdc_geom_bond_type 
O1            V9   2.017   1_556  S
O1           C11   1.305       .  A
O2            V9   2.013       .  S
O2           C12   1.300       .  A
O3            V9   1.779   1_556  S
O3           C13   1.230   1_556  A
O4            V9   1.816       .  S
O4           C14   1.227       .  A
O5           V10   2.014   1_556  S
O5           C14   1.305   1_556  A
O6           V10   2.028       .  S
O6           C13   1.304       .  A
O7           V10   1.804       .  S
O7           C12   1.232       .  A
O8           V10   1.831   1_556  S
O8           C11   1.234       .  A
V9           V10   2.010       .  T
C11        C1090   1.525       .  S
C12        C1042   1.529       .  S
C13        C1058   1.534       .  S
C14        C1074   1.512       .  S
C15         C267   1.620       .  S
C15         C301   1.612       .  S
C15        C1026   1.589       .  S
C15        C1093   1.612       .  S
O16          V24   1.996       .  S
O16          C26   1.296       .  A
O17          V24   1.983   1_554  S
O17          C27   1.291   1_554  A
O18          V24   1.799       .  S
O18          C28   1.223       .  A
O19          V24   1.788   1_554  S
O19          C29   1.224       .  A
O20          V25   1.982   1_554  S
O20          C29   1.292       .  A
O21          V25   2.010       .  S
O21          C28   1.301       .  A
O22          V25   1.798       .  S
O22          C27   1.236       .  A
O23          V25   1.817   1_554  S
O23          C26   1.228   1_554  A
V24          V25   2.021       .  T
C26        C1013   1.507       .  S
C27         C997   1.481       .  S
C28         C978   1.498       .  S
C29         C962   1.492       .  S
C30         C312   1.642       .  S
C30         C328   1.634       .  S
C30         C946   1.635       .  S
C30         C981   1.602       .  S
O31          V39   1.978       .  S
O31          C41   1.290       .  A
O32          V39   1.982       .  S
O32          C42   1.291       .  A
O33          V39   1.828       .  S
O33          C43   1.239       .  A
O34          V39   1.851   1_655  S
O34          C44   1.243       .  A
O35          V40   2.006   1_655  S
O35          C44   1.298       .  A
O36          V40   1.975       .  S
O36          C43   1.288       .  A
O37          V40   1.795       .  S
O37          C42   1.226       .  A
O38          V40   1.798       .  S
O38          C41   1.234       .  A
V39          V40   2.063       .  T
C41         C930   1.475       .  S
C42         C917   1.489   1_455  S
C43        C1029   1.484       .  S
C44         C949   1.527       .  S
O45          V53   1.986   1_655  S
O45          C55   1.291       .  A
O46          V53   1.975       .  S
O46          C56   1.295       .  A
O47          V53   1.825       .  S
O47          C57   1.243       .  A
O48          V53   1.827       .  S
O48          C58   1.242   1_455  A
O49          V54   1.995   1_655  S
O49          C58   1.292       .  A
O50          V54   1.963       .  S
O50          C57   1.287       .  A
O51          V54   1.784       .  S
O51          C56   1.224       .  A
O52          V54   1.781   1_655  S
O52          C55   1.210       .  A
V53          V54   2.026       .  T
C55         C898   1.467       .  S
C56         C850   1.488       .  S
C57         C885   1.481       .  S
C58         C869   1.503       .  S
C59         C276   1.593       .  S
C59         C319   1.626       .  S
C59         C901   1.595       .  S
C59         C965   1.589       .  S
C60         C283   1.600       .  S
C60         C292   1.624       .  S
C60         C853   1.607       .  S
C60        C1045   1.628       .  S
O61          V69   1.990   1_554  S
O61          C71   1.297       .  A
O62          V69   1.990       .  S
O62          C72   1.292       .  A
O63          V69   1.841       .  S
O63          C73   1.247       .  A
O64          V69   1.857   1_554  S
O64          C74   1.247       .  A
O65          V70   1.975       .  S
O65          C74   1.291       .  A
O66          V70   1.996   1_556  S
O66          C73   1.295       .  A
O67          V70   1.800       .  S
O67          C72   1.222   1_554  A
O68          V70   1.818   1_556  S
O68          C71   1.238   1_556  A
V69          V70   2.014   1_556  T
C71         C837   1.490       .  S
C72         C818   1.497       .  S
C73         C802   1.506       .  S
C74         C789   1.496       .  S
C75         C303   1.619       .  S
C75         C330   1.628       .  S
C75         C770   1.608       .  S
C75         C805   1.614       .  S
O76          V84   1.992   1_545  S
O76          C86   1.296       .  A
O77          V84   1.977       .  S
O77          C87   1.294       .  A
O78          V84   1.837       .  S
O78          C88   1.247       .  A
O79          V84   1.833   1_545  S
O79          C89   1.240       .  A
O80          V85   1.984       .  S
O80          C89   1.296       .  A
O81          V85   1.998   1_565  S
O81          C88   1.294       .  A
O82          V85   1.801       .  S
O82          C87   1.223   1_545  A
O83          V85   1.818   1_565  S
O83          C86   1.232   1_565  A
V84          V85   2.010   1_565  T
C86         C754   1.499       .  S
C87         C741   1.474       .  S
C88         C773   1.505       .  S
C89         C722   1.495       .  S
O90          V98   1.962       .  S
O90         C100   1.289       .  A
O91          V98   2.019   1_554  S
O91         C101   1.299       .  A
O92          V98   1.827   1_554  S
O92         C102   1.240       .  A
O93          V98   1.818       .  S
O93         C103   1.218       .  A
O94          V99   1.999       .  S
O94         C103   1.294   1_554  A
O95          V99   1.991   1_556  S
O95         C102   1.300   1_556  A
O96          V99   1.810       .  S
O96         C101   1.241       .  A
O97          V99   1.835   1_556  S
O97         C100   1.243       .  A
V98          V99   2.014   1_556  T
C100        C706   1.474       .  S
C101        C658   1.513       .  S
C102        C693   1.511       .  S
C103        C674   1.500   1_556  S
C104        C269   1.617       .  S
C104        C314   1.591       .  S
C104        C709   1.598       .  S
C104        C725   1.612       .  S
O105        V113   1.955   1_565  S
O105        C115   1.282       .  A
O106        V113   1.944       .  S
O106        C116   1.281       .  A
O107        V113   1.838   1_565  S
O107        C117   1.240       .  A
O108        V113   1.849       .  S
O108        C118   1.250       .  A
O109        V114   1.990   1_545  S
O109        C118   1.289       .  A
O110        V114   1.971       .  S
O110        C117   1.288       .  A
O111        V114   1.823   1_545  S
O111        C116   1.239       .  A
O112        V114   1.820       .  S
O112        C115   1.239       .  A
V113        V114   2.080   1_545  T
C115        C642   1.468       .  S
C116        C594   1.466       .  S
C117        C610   1.495       .  S
C118        C629   1.516       .  S
C119        C287   1.638       .  S
C119        C321   1.601       .  S
C119        C645   1.609       .  S
C119        C786   1.615       .  S
C120        C274   1.615       .  S
C120        C294   1.617       .  S
C120        C597   1.606       .  S
C120        C661   1.632       .  S
O121        V129   2.039   1_565  S
O121        C131   1.307       .  A
O122        V129   1.992       .  S
O122        C132   1.301       .  A
O123        V129   1.820   1_565  S
O123        C133   1.236       .  A
O124        V129   1.802       .  S
O124        C134   1.214       .  A
O125        V130   1.998       .  S
O125        C134   1.296   1_565  A
O126        V130   1.992       .  S
O126        C133   1.303       .  A
O127        V130   1.817   1_545  S
O127        C132   1.230       .  A
O128        V130   1.787       .  S
O128        C131   1.235       .  A
V129        V130   2.002   1_545  T
C131        C578   1.532       .  S
C132        C530   1.506       .  S
C133        C565   1.499       .  S
C134        C546   1.493   1_545  S
C135        C285   1.636       .  S
C135        C305   1.633       .  S
C135        C514   1.618       .  S
C135        C581   1.621       .  S
O136        V144   1.982       .  S
O136        C146   1.295       .  A
O137        V144   1.994       .  S
O137        C147   1.296       .  A
O138        V144   1.826   1_565  S
O138        C148   1.235       .  A
O139        V144   1.816       .  S
O139        C149   1.237       .  A
O140        V145   1.976       .  S
O140        C149   1.289       .  A
O141        V145   1.981   1_565  S
O141        C148   1.295       .  A
O142        V145   1.816       .  S
O142        C147   1.235       .  A
O143        V145   1.808       .  S
O143        C146   1.229       .  A
V144        V145   2.053       .  T
C146        C485   1.500       .  S
C147        C498   1.501       .  S
C148        C466   1.500       .  S
C149        C450   1.481       .  S
C150        C323   1.629       .  S
C150        C332   1.600       .  S
C150        C434   1.598       .  S
C150        C469   1.590       .  S
O151        V159   1.964       .  S
O151        C161   1.285       .  A
O152        V159   1.949   1_455  S
O152        C162   1.282       .  A
O153        V159   1.849       .  S
O153        C163   1.244       .  A
O154        V159   1.869   1_455  S
O154        C164   1.249       .  A
O155        V160   1.981       .  S
O155        C164   1.290       .  A
O156        V160   1.973   1_655  S
O156        C163   1.287       .  A
O157        V160   1.795       .  S
O157        C162   1.232       .  A
O158        V160   1.813       .  S
O158        C161   1.238   1_455  A
V159        V160   2.075   1_655  T
C161        C418   1.470       .  S
C162        C405   1.460       .  S
C163        C437   1.497       .  S
C164        C517   1.515       .  S
O165        V173   1.991   1_655  S
O165        C175   1.294       .  A
O166        V173   1.989       .  S
O166        C176   1.295       .  A
O167        V173   1.810       .  S
O167        C177   1.233       .  A
O168        V173   1.820   1_655  S
O168        C178   1.232       .  A
O169        V174   1.995       .  S
O169        C178   1.296       .  A
O170        V174   1.979       .  S
O170        C177   1.290   1_655  A
O171        V174   1.812   1_455  S
O171        C176   1.231       .  A
O172        V174   1.805       .  S
O172        C175   1.233       .  A
V173        V174   2.068   1_455  T
C175        C386   1.493       .  S
C176        C341   1.493       .  S
C177        C354   1.483       .  S
C178        C370   1.497       .  S
C179        C278   1.633       .  S
C179        C310   1.602       .  S
C179        C389   1.611       .  S
C179        C453   1.606       .  S
C180        C265   1.643       .  S
C180        C296   1.619       .  S
C180        C338   1.617       .  S
C180        C533   1.615       .  S
C181        C197   1.605       .  S
C181        C256   1.604   1_655  S
C181        C373   1.608       .  S
C181        C882   1.586   1_655  S
C182        C195   1.641   1_565  S
C182        C222   1.621       .  S
C182        C501   1.611   1_565  S
C182        C613   1.610       .  S
C183        C204   1.608       .  S
C183        C224   1.631   1_455  S
C183        C421   1.597       .  S
C183        C866   1.623   1_455  S
C184        C206   1.629       .  S
C184        C258   1.597   1_565  S
C184        C562   1.616       .  S
C184        C626   1.602   1_565  S
C185        C229   1.606   1_655  S
C185        C247   1.593       .  S
C185        C402   1.588       .  S
C185        C914   1.606   1_655  S
C186        C213   1.602       .  S
C186        C231   1.606   1_545  S
C186        C549   1.585   1_545  S
C186        C757   1.617       .  S
C187        C211   1.607   1_655  S
C187        C242   1.612       .  S
C187        C357   1.622       .  S
C187        C933   1.602       .  S
C188        C238   1.607   1_565  S
C188        C251   1.600       .  S
C188        C482   1.603   1_565  S
C188        C738   1.597       .  S
C189        C215   1.629   1_554  S
C189        C260   1.619       .  S
C189        C690   1.608   1_554  S
C189       C1077   1.608       .  S
C190        C202   1.635   1_556  S
C190        C233   1.576       .  S
C190        C821   1.615       .  S
C190       C1061   1.599   1_556  S
C191        C193   1.610       .  S
C191        C240   1.599   1_554  S
C191        C677   1.576       .  S
C191       C1010   1.628   1_554  S
C192        C220   1.620       .  S
C192        C249   1.602   1_554  S
C192        C834   1.628   1_554  S
C192        C994   1.586   1_554  S
C193        C194   1.450       .  A
C193        C198   1.432       .  A
C194        C195   1.429       .  A
C194        H199   1.079       .  S
C195        C196   1.442       .  A
C196        C197   1.444       .  A
C196        H200   1.066       .  S
C197        C198   1.430       .  A
C198        H201   1.063       .  S
C202        C203   1.447       .  A
C202        C207   1.446       .  A
C203        C204   1.421       .  A
C203        H208   1.074       .  S
C204        C205   1.422       .  A
C205        C206   1.432       .  A
C205        H209   1.065       .  S
C206        C207   1.449       .  A
C207        H210   1.051       .  S
C211        C212   1.424       .  A
C211        C216   1.452       .  A
C212        C213   1.423       .  A
C212        H217   1.070       .  S
C213        C214   1.440       .  A
C214        C215   1.434       .  A
C214        H218   1.079       .  S
C215        C216   1.438       .  A
C216        H219   1.078       .  S
C220        C221   1.432       .  A
C220        C225   1.434       .  A
C221        C222   1.444       .  A
C221        H226   1.082       .  S
C222        C223   1.440       .  A
C223        C224   1.445       .  A
C223        H227   1.064       .  S
C224        C225   1.433       .  A
C225        H228   1.067       .  S
C229        C230   1.434       .  A
C229        C234   1.413       .  A
C230        C231   1.447       .  A
C230        H235   1.076       .  S
C231        C232   1.417       .  A
C232        C233   1.435       .  A
C232        H236   1.073       .  S
C233        C234   1.406       .  A
C234        H237   1.038       .  S
C238        C239   1.428       .  A
C238        C243   1.448       .  A
C239        C240   1.439       .  A
C239        H244   1.062       .  S
C240        C241   1.436       .  A
C241        C242   1.418       .  A
C241        H245   1.080       .  S
C242        C243   1.430       .  A
C243        H246   1.080       .  S
C247        C248   1.434       .  A
C247        C252   1.429       .  A
C248        C249   1.432       .  A
C248        H253   1.077       .  S
C249        C250   1.426       .  A
C250        C251   1.441       .  A
C250        H254   1.079       .  S
C251        C252   1.417       .  A
C252        H255   1.071       .  S
C256        C257   1.429       .  A
C256        C261   1.437       .  A
C257        C258   1.425       .  A
C257        H262   1.068       .  S
C258        C259   1.445       .  A
C259        C260   1.432       .  A
C259        H263   1.075       .  S
C260        C261   1.429       .  A
C261        H264   1.081       .  S
C265        C266   1.447       .  A
C265        C270   1.448       .  A
C266        C267   1.436       .  A
C266        H271   1.064       .  S
C267        C268   1.429       .  A
C268        C269   1.421       .  A
C268        H272   1.073       .  S
C269        C270   1.448       .  A
C270        H273   1.071       .  S
C274        C275   1.422       .  A
C274        C279   1.453       .  A
C275        C276   1.427       .  A
C275        H280   1.074       .  S
C276        C277   1.435       .  A
C277        C278   1.415       .  A
C277        H281   1.057       .  S
C278        C279   1.449       .  A
C279        H282   1.077       .  S
C283        C284   1.420       .  A
C283        C288   1.415       .  A
C284        C285   1.438       .  A
C284        H289   1.076       .  S
C285        C286   1.461       .  A
C286        C287   1.451       .  A
C286        H290   1.070       .  S
C287        C288   1.409       .  A
C288        H291   1.057       .  S
C292        C293   1.433       .  A
C292        C297   1.444       .  A
C293        C294   1.440       .  A
C293        H298   1.064       .  S
C294        C295   1.428       .  A
C295        C296   1.441       .  A
C295        H299   1.081       .  S
C296        C297   1.438       .  A
C297        H300   1.076       .  S
C301        C302   1.421       .  A
C301        C306   1.448       .  A
C302        C303   1.424       .  A
C302        H307   1.061       .  S
C303        C304   1.443       .  A
C304        C305   1.447       .  A
C304        H308   1.075       .  S
C305        C306   1.433       .  A
C306        H309   1.069       .  S
C310        C311   1.441       .  A
C310        C315   1.413       .  A
C311        C312   1.433       .  A
C311        H316   1.076       .  S
C312        C313   1.443       .  A
C313        C314   1.452       .  A
C313        H317   1.076       .  S
C314        C315   1.420       .  A
C315        H318   1.060       .  S
C319        C320   1.436       .  A
C319        C324   1.447       .  A
C320        C321   1.426       .  A
C320        H325   1.080       .  S
C321        C322   1.425       .  A
C322        C323   1.443       .  A
C322        H326   1.079       .  S
C323        C324   1.452       .  A
C324        H327   1.065       .  S
C328        C329   1.455       .  A
C328        C333   1.428       .  A
C329        C330   1.448       .  A
C329        H334   1.076       .  S
C330        C331   1.425       .  A
C331        C332   1.421       .  A
C331        H335   1.060       .  S
C332        C333   1.432       .  A
C333        H336   1.052       .  S
C337        C338   1.405       .  A
C337        C342   1.423       .  A
C337        H344   1.072       .  S
C338        C339   1.457       .  A
C339        C346   1.497       .  S
C339        C340   1.405       .  A
C340        C341   1.379       .  A
C340        H345   1.081       .  S
C341        C342   1.443       .  A
C342        C343   1.519       .  S
C343        F347   1.381       .  S
C343        F348   1.375       .  S
C343        F349   1.377       .  S
C346        F350   1.359       .  S
C346        F351   1.379       .  S
C346        F352   1.379       .  S
C353        C354   1.384   1_655  A
C353        C358   1.411       .  A
C353        H360   1.069       .  S
C354        C355   1.412       .  A
C355        C362   1.512       .  S
C355        C356   1.428       .  A
C356        C357   1.428   1_455  A
C356        H361   1.060       .  S
C357        C358   1.444       .  A
C358        C359   1.479       .  S
C359        F363   1.380       .  S
C359        F364   1.363       .  S
C359        F365   1.360       .  S
C362        F366   1.381       .  S
C362        F367   1.376       .  S
C362        F368   1.372       .  S
C369        C370   1.388       .  A
C369        C374   1.423       .  A
C369        H376   1.086       .  S
C370        C371   1.422   1_655  A
C371        C378   1.514       .  S
C371        C372   1.421       .  A
C372        C373   1.422   1_455  A
C372        H377   1.075       .  S
C373        C374   1.464       .  A
C374        C375   1.519       .  S
C375        F379   1.378       .  S
C375        F380   1.349       .  S
C375        F381   1.384       .  S
C378        F382   1.382       .  S
C378        F383   1.376       .  S
C378        F384   1.380       .  S
C385        C386   1.402       .  A
C385        C390   1.402       .  A
C385        H392   1.088       .  S
C386        C387   1.415       .  A
C387        C394   1.494       .  S
C387        C388   1.423       .  A
C388        C389   1.431       .  A
C388        H393   1.080       .  S
C389        C390   1.425       .  A
C390        C391   1.488       .  S
C391        F395   1.387       .  S
C391        F396   1.354       .  S
C391        F397   1.377       .  S
C394        F398   1.377       .  S
C394        F399   1.382       .  S
C394        F400   1.384       .  S
C401        C402   1.398   1_455  A
C401        C406   1.406       .  A
C401        H408   1.065       .  S
C402        C403   1.470       .  A
C403        C410   1.511       .  S
C403        C404   1.398       .  A
C404        C405   1.369   1_655  A
C404        H409   1.085       .  S
C405        C406   1.422       .  A
C406        C407   1.510       .  S
C407        F411   1.373       .  S
C407        F412   1.377       .  S
C407        F413   1.382       .  S
C410        F414   1.368       .  S
C410        F415   1.355       .  S
C410        F416   1.378       .  S
C417        C418   1.377   1_455  A
C417        C422   1.408       .  A
C417        H424   1.084       .  S
C418        C419   1.410       .  A
C419        C426   1.494       .  S
C419        C420   1.411       .  A
C420        C421   1.413   1_655  A
C420        H425   1.066       .  S
C421        C422   1.461       .  A
C422        C423   1.507       .  S
C423        F427   1.371       .  S
C423        F428   1.350       .  S
C423        F429   1.384       .  S
C426        F430   1.375       .  S
C426        F431   1.372       .  S
C426        F432   1.370       .  S
C433        C434   1.421       .  A
C433        C438   1.427       .  A
C433        H440   1.081       .  S
C434        C435   1.421       .  A
C435        C442   1.475       .  S
C435        C436   1.405       .  A
C436        C437   1.393       .  A
C436        H441   1.071       .  S
C437        C438   1.426       .  A
C438        C439   1.495       .  S
C439        F443   1.382       .  S
C439        F444   1.380       .  S
C439        F445   1.381       .  S
C442        F446   1.369       .  S
C442        F447   1.354       .  S
C442        F448   1.386       .  S
C449        C450   1.421       .  A
C449        C454   1.423       .  A
C449        H456   1.084       .  S
C450        C451   1.407       .  A
C451        C458   1.527       .  S
C451        C452   1.424       .  A
C452        C453   1.435       .  A
C452        H457   1.078       .  S
C453        C454   1.427       .  A
C454        C455   1.532       .  S
C455        F459   1.385       .  S
C455        F460   1.379       .  S
C455        F461   1.378       .  S
C458        F462   1.369       .  S
C458        F463   1.377       .  S
C458        F464   1.384       .  S
C465        C466   1.424       .  A
C465        C470   1.419       .  A
C465        H472   1.084       .  S
C466        C467   1.414       .  A
C467        C474   1.504       .  S
C467        C468   1.415       .  A
C468        C469   1.417       .  A
C468        H473   1.069       .  S
C469        C470   1.414       .  A
C470        C471   1.522       .  S
C471        F475   1.380       .  S
C471        F476   1.383       .  S
C471        F477   1.386       .  S
C474        F478   1.368       .  S
C474        F479   1.380       .  S
C474        F480   1.384       .  S
C481        C482   1.407   1_565  A
C481        C486   1.416       .  A
C481        H488   1.060       .  S
C482        C483   1.475       .  A
C483        C490   1.519       .  S
C483        C484   1.406       .  A
C484        C485   1.373       .  A
C484        H489   1.086       .  S
C485        C486   1.441   1_545  A
C486        C487   1.529       .  S
C487        F491   1.380       .  S
C487        F492   1.383       .  S
C487        F493   1.382       .  S
C490        F494   1.355       .  S
C490        F495   1.373       .  S
C490        F496   1.381       .  S
C497        C498   1.419   1_565  A
C497        C502   1.417       .  A
C497        H504   1.079       .  S
C498        C499   1.415       .  A
C499        C506   1.522       .  S
C499        C500   1.432       .  A
C500        C501   1.442       .  A
C500        H505   1.080       .  S
C501        C502   1.410   1_545  A
C502        C503   1.503       .  S
C503        F507   1.385   1_565  S
C503        F508   1.358       .  S
C503        F509   1.379       .  S
C506        F510   1.379       .  S
C506        F511   1.359       .  S
C506        F512   1.382       .  S
C513        C514   1.429       .  A
C513        C518   1.431       .  A
C513        H520   1.079       .  S
C514        C515   1.425       .  A
C515        C522   1.502       .  S
C515        C516   1.419       .  A
C516        C517   1.407       .  A
C516        H521   1.086       .  S
C517        C518   1.427       .  A
C518        C519   1.508       .  S
C519        F523   1.379       .  S
C519        F524   1.379       .  S
C519        F525   1.375       .  S
C522        F526   1.363       .  S
C522        F527   1.381       .  S
C522        F528   1.388       .  S
C529        C530   1.375       .  A
C529        C534   1.408       .  A
C529        H536   1.085       .  S
C530        C531   1.448       .  A
C531        C538   1.529       .  S
C531        C532   1.419       .  A
C532        C533   1.394       .  A
C532        H537   1.060       .  S
C533        C534   1.466       .  A
C534        C535   1.505       .  S
C535        F539   1.371       .  S
C535        F540   1.346       .  S
C535        F541   1.381       .  S
C538        F542   1.384       .  S
C538        F543   1.383       .  S
C538        F544   1.385       .  S
C545        C546   1.369       .  A
C545        C550   1.401       .  A
C545        H552   1.086       .  S
C546        C547   1.456   1_565  A
C547        C554   1.532       .  S
C547        C548   1.409       .  A
C548        C549   1.393   1_545  A
C548        H553   1.063       .  S
C549        C550   1.465       .  A
C550        C551   1.507       .  S
C551        F555   1.377       .  S
C551        F556   1.358       .  S
C551        F557   1.383       .  S
C554        F558   1.381       .  S
C554        F559   1.378       .  S
C554        F560   1.386       .  S
C561        C562   1.423       .  A
C561        C566   1.415       .  A
C561        H568   1.074       .  S
C562        C563   1.431   1_565  A
C563        C570   1.521       .  S
C563        C564   1.411       .  A
C564        C565   1.413   1_545  A
C564        H569   1.086       .  S
C565        C566   1.397       .  A
C566        C567   1.491       .  S
C567        F571   1.382       .  S
C567        F572   1.375       .  S
C567        F573   1.376       .  S
C570        F574   1.373   1_545  S
C570        F575   1.375       .  S
C570        F576   1.390   1_545  S
C577        C578   1.401       .  A
C577        C582   1.404       .  A
C577        H584   1.074       .  S
C578        C579   1.428       .  A
C579        C586   1.495       .  S
C579        C580   1.442       .  A
C580        C581   1.439       .  A
C580        H585   1.081       .  S
C581        C582   1.422       .  A
C582        C583   1.473       .  S
C583        F587   1.384       .  S
C583        F588   1.358       .  S
C583        F589   1.376       .  S
C586        F590   1.371       .  S
C586        F591   1.376       .  S
C586        F592   1.378       .  S
C593        C594   1.362       .  A
C593        C598   1.401       .  A
C593        H600   1.082       .  S
C594        C595   1.391       .  A
C595        C602   1.474       .  S
C595        C596   1.420       .  A
C596        C597   1.418       .  A
C596        H601   1.077       .  S
C597        C598   1.458       .  A
C598        C599   1.471       .  S
C599        F603   1.377       .  S
C599        F604   1.357       .  S
C599        F605   1.354       .  S
C602        F606   1.349       .  S
C602        F607   1.365       .  S
C602        F608   1.368       .  S
C609        C610   1.382       .  A
C609        C614   1.420       .  A
C609        H616   1.085       .  S
C610        C611   1.421   1_565  A
C611        C618   1.518       .  S
C611        C612   1.415       .  A
C612        C613   1.413   1_545  A
C612        H617   1.063       .  S
C613        C614   1.474       .  A
C614        C615   1.532       .  S
C615        F619   1.379       .  S
C615        F620   1.374       .  S
C615        F621   1.362       .  S
C618        F622   1.377       .  S
C618        F623   1.378       .  S
C618        F624   1.373       .  S
C625        C626   1.436       .  A
C625        C630   1.437       .  A
C625        H632   1.083       .  S
C626        C627   1.409   1_545  A
C627        C634   1.482       .  S
C627        C628   1.407       .  A
C628        C629   1.406   1_565  A
C628        H633   1.087       .  S
C629        C630   1.439       .  A
C630        C631   1.526       .  S
C631        F635   1.360       .  S
C631        F636   1.366       .  S
C631        F637   1.384       .  S
C634        F638   1.379       .  S
C634        F639   1.378       .  S
C634        F640   1.386       .  S
C641        C642   1.383       .  A
C641        C646   1.417       .  A
C641        H648   1.088       .  S
C642        C643   1.391       .  A
C643        C650   1.508       .  S
C643        C644   1.414       .  A
C644        C645   1.426       .  A
C644        H649   1.060       .  S
C645        C646   1.464       .  A
C646        C647   1.509       .  S
C647        F651   1.374       .  S
C647        F652   1.385       .  S
C647        F653   1.349       .  S
C650        F654   1.380       .  S
C650        F655   1.372       .  S
C650        F656   1.378       .  S
C657        C658   1.377       .  A
C657        C662   1.399       .  A
C657        H664   1.090       .  S
C658        C659   1.421       .  A
C659        C666   1.475       .  S
C659        C660   1.441       .  A
C660        C661   1.422       .  A
C660        H665   1.069       .  S
C661        C662   1.452       .  A
C662        C663   1.475       .  S
C663        F667   1.387       .  S
C663        F668   1.325       .  S
C663        F669   1.375       .  S
C666        F670   1.362       .  S
C666        F671   1.376       .  S
C666        F672   1.380       .  S
C673        C674   1.376       .  A
C673        C678   1.403       .  A
C673        H680   1.073       .  S
C674        C675   1.448       .  A
C675        C682   1.520   1_554  S
C675        C676   1.407       .  A
C676        C677   1.389       .  A
C676        H681   1.063   1_554  S
C677        C678   1.460       .  A
C678        C679   1.513       .  S
C679        F683   1.380       .  S
C679        F684   1.385       .  S
C679        F685   1.350       .  S
C682        F686   1.384       .  S
C682        F687   1.381   1_556  S
C682        F688   1.381       .  S
C689        C690   1.406   1_554  A
C689        C694   1.419       .  A
C689        H696   1.062       .  S
C690        C691   1.465       .  A
C691        C698   1.506       .  S
C691        C692   1.414       .  A
C692        C693   1.374   1_556  A
C692        H697   1.083       .  S
C693        C694   1.435       .  A
C694        C695   1.510       .  S
C695        F699   1.381       .  S
C695        F700   1.368       .  S
C695        F701   1.383       .  S
C698        F702   1.374       .  S
C698        F703   1.361       .  S
C698        F704   1.375       .  S
C705        C706   1.388       .  A
C705        C710   1.413       .  A
C705        H712   1.086       .  S
C706        C707   1.404       .  A
C707        C714   1.511       .  S
C707        C708   1.417       .  A
C708        C709   1.421       .  A
C708        H713   1.068       .  S
C709        C710   1.470       .  A
C710        C711   1.540       .  S
C711        F715   1.363       .  S
C711        F716   1.362       .  S
C711        F717   1.380       .  S
C714        F718   1.381       .  S
C714        F719   1.383       .  S
C714        F720   1.372       .  S
C721        C722   1.378       .  A
C721        C726   1.413       .  A
C721        H728   1.084       .  S
C722        C723   1.428       .  A
C723        C730   1.521       .  S
C723        C724   1.428       .  A
C724        C725   1.417       .  A
C724        H729   1.073       .  S
C725        C726   1.456       .  A
C726        C727   1.493       .  S
C727        F731   1.386       .  S
C727        F732   1.359       .  S
C727        F733   1.367       .  S
C730        F734   1.381       .  S
C730        F735   1.381       .  S
C730        F736   1.383       .  S
C737        C738   1.406       .  A
C737        C742   1.418       .  A
C737        H744   1.076       .  S
C738        C739   1.466       .  A
C739        C746   1.497       .  S
C739        C740   1.384       .  A
C740        C741   1.361       .  A
C740        H745   1.078       .  S
C741        C742   1.441       .  A
C742        C743   1.526       .  S
C743        F747   1.385       .  S
C743        F748   1.381       .  S
C743        F749   1.379   1_565  S
C746        F750   1.360       .  S
C746        F751   1.378       .  S
C746        F752   1.377       .  S
C753        C754   1.371       .  A
C753        C758   1.407       .  A
C753        H760   1.085       .  S
C754        C755   1.437       .  A
C755        C762   1.520       .  S
C755        C756   1.419       .  A
C756        C757   1.403       .  A
C756        H761   1.076   1_545  S
C757        C758   1.478       .  A
C758        C759   1.502       .  S
C759        F763   1.376       .  S
C759        F764   1.354       .  S
C759        F765   1.371       .  S
C762        F766   1.384       .  S
C762        F767   1.377   1_545  S
C762        F768   1.382       .  S
C769        C770   1.423       .  A
C769        C774   1.429       .  A
C769        H776   1.079       .  S
C770        C771   1.435       .  A
C771        C778   1.483       .  S
C771        C772   1.407       .  A
C772        C773   1.388       .  A
C772        H777   1.086       .  S
C773        C774   1.428       .  A
C774        C775   1.494       .  S
C775        F779   1.384       .  S
C775        F780   1.381       .  S
C775        F781   1.377       .  S
C778        F782   1.373       .  S
C778        F783   1.376       .  S
C778        F784   1.384       .  S
C785        C786   1.410       .  A
C785        C790   1.411       .  A
C785        H792   1.074       .  S
C786        C787   1.436       .  A
C787        C794   1.465       .  S
C787        C788   1.408       .  A
C788        C789   1.379       .  A
C788        H793   1.083       .  S
C789        C790   1.428       .  A
C790        C791   1.482       .  S
C791        F795   1.381       .  S
C791        F796   1.379       .  S
C791        F797   1.368       .  S
C794        F798   1.376       .  S
C794        F799   1.336       .  S
C794        F800   1.387       .  S
C801        C802   1.392       .  A
C801        C806   1.411       .  A
C801        H808   1.085       .  S
C802        C803   1.425       .  A
C803        C810   1.494       .  S
C803        C804   1.430       .  A
C804        C805   1.422       .  A
C804        H809   1.080       .  S
C805        C806   1.435       .  A
C806        C807   1.479       .  S
C807        F811   1.385       .  S
C807        F812   1.357       .  S
C807        F813   1.377       .  S
C810        F814   1.383       .  S
C810        F815   1.376       .  S
C810        F816   1.384       .  S
C817        C818   1.366       .  A
C817        C822   1.394       .  A
C817        H824   1.073       .  S
C818        C819   1.443       .  A
C819        C826   1.519       .  S
C819        C820   1.420       .  A
C820        C821   1.390       .  A
C820        H825   1.067       .  S
C821        C822   1.459       .  A
C822        C823   1.493       .  S
C823        F827   1.372       .  S
C823        F828   1.355       .  S
C823        F829   1.379       .  S
C826        F830   1.383       .  S
C826        F831   1.383   1_556  S
C826        F832   1.373       .  S
C833        C834   1.416   1_554  A
C833        C838   1.433       .  A
C833        H840   1.069       .  S
C834        C835   1.458       .  A
C835        C842   1.503       .  S
C835        C836   1.411       .  A
C836        C837   1.379   1_556  A
C836        H841   1.086       .  S
C837        C838   1.430       .  A
C838        C839   1.519       .  S
C839        F843   1.368       .  S
C839        F844   1.379       .  S
C839        F845   1.378       .  S
C842        F846   1.379       .  S
C842        F847   1.351       .  S
C842        F848   1.366       .  S
C849        C850   1.367       .  A
C849        C854   1.401       .  A
C849        H856   1.084       .  S
C850        C851   1.436       .  A
C851        C858   1.527       .  S
C851        C852   1.415       .  A
C852        C853   1.412       .  A
C852        H857   1.060       .  S
C853        C854   1.463       .  A
C854        C855   1.499       .  S
C855        F859   1.381       .  S
C855        F860   1.350       .  S
C855        F861   1.378       .  S
C858        F862   1.383       .  S
C858        F863   1.382       .  S
C858        F864   1.367       .  S
C865        C866   1.435       .  A
C865        C870   1.439       .  A
C865        H872   1.081       .  S
C866        C867   1.442   1_655  A
C867        C874   1.473       .  S
C867        C868   1.406       .  A
C868        C869   1.385   1_455  A
C868        H873   1.086       .  S
C869        C870   1.414       .  A
C870        C871   1.494       .  S
C871        F875   1.384       .  S
C871        F876   1.380       .  S
C871        F877   1.382       .  S
C874        F878   1.351       .  S
C874        F879   1.357       .  S
C874        F880   1.386       .  S
C881        C882   1.431       .  A
C881        C886   1.427       .  A
C881        H888   1.078       .  S
C882        C883   1.407   1_455  A
C883        C890   1.506       .  S
C883        C884   1.408       .  A
C884        C885   1.412   1_655  A
C884        H889   1.086       .  S
C885        C886   1.418       .  A
C886        C887   1.510       .  S
C887        F891   1.381       .  S
C887        F892   1.379       .  S
C887        F893   1.381       .  S
C890        F894   1.370       .  S
C890        F895   1.383       .  S
C890        F896   1.384       .  S
C897        C898   1.376       .  A
C897        C902   1.401       .  A
C897        H904   1.087       .  S
C898        C899   1.451       .  A
C899        C906   1.541       .  S
C899        C900   1.412       .  A
C900        C901   1.379       .  A
C900        H905   1.044       .  S
C901        C902   1.467       .  A
C902        C903   1.500       .  S
C903        F907   1.384       .  S
C903        F908   1.380       .  S
C903        F909   1.343       .  S
C906        F910   1.375       .  S
C906        F911   1.379       .  S
C906        F912   1.369       .  S
C913        C914   1.410   1_655  A
C913        C918   1.417       .  A
C913        H920   1.061       .  S
C914        C915   1.470       .  A
C915        C922   1.517       .  S
C915        C916   1.411       .  A
C916        C917   1.376   1_455  A
C916        H921   1.084       .  S
C917        C918   1.433       .  A
C918        C919   1.522       .  S
C919        F923   1.365       .  S
C919        F924   1.382       .  S
C919        F925   1.384       .  S
C922        F926   1.377       .  S
C922        F927   1.369       .  S
C922        F928   1.371       .  S
C929        C930   1.379   1_655  A
C929        C934   1.399       .  A
C929        H936   1.069       .  S
C930        C931   1.413       .  A
C931        C938   1.488       .  S
C931        C932   1.415       .  A
C932        C933   1.422   1_455  A
C932        H937   1.069       .  S
C933        C934   1.447       .  A
C934        C935   1.488       .  S
C935        F939   1.381       .  S
C935        F940   1.328       .  S
C935        F941   1.383       .  S
C938        F942   1.363       .  S
C938        F943   1.367       .  S
C938        F944   1.377       .  S
C945        C946   1.437       .  A
C945        C950   1.434       .  A
C945        H952   1.075       .  S
C946        C947   1.428       .  A
C947        C954   1.484       .  S
C947        C948   1.419       .  A
C948        C949   1.403       .  A
C948        H953   1.086       .  S
C949        C950   1.419       .  A
C950        C951   1.497       .  S
C951        F955   1.379       .  S
C951        F956   1.383       .  S
C951        F957   1.367       .  S
C954        F958   1.375       .  S
C954        F959   1.366       .  S
C954        F960   1.387       .  S
C961        C962   1.377       .  A
C961        C966   1.407       .  A
C961        H968   1.085       .  S
C962        C963   1.442       .  A
C963        C970   1.530       .  S
C963        C964   1.400       .  A
C964        C965   1.399       .  A
C964        H969   1.054       .  S
C965        C966   1.475       .  A
C966        C967   1.523       .  S
C967        F971   1.385       .  S
C967        F972   1.362       .  S
C967        F973   1.363       .  S
C970        F974   1.377       .  S
C970        F975   1.384       .  S
C970        F976   1.383       .  S
C977        C978   1.388       .  A
C977        C982   1.411       .  A
C977        H984   1.078       .  S
C978        C979   1.444       .  A
C979        C986   1.537       .  S
C979        C980   1.413       .  A
C980        C981   1.402       .  A
C980        H985   1.060       .  S
C981        C982   1.473       .  A
C982        C983   1.535       .  S
C983        F987   1.383       .  S
C983        F988   1.366       .  S
C983        F989   1.378       .  S
C986        F990   1.382       .  S
C986        F991   1.380       .  S
C986        F992   1.384       .  S
C993        C994   1.409       .  A
C993        C998   1.420       .  A
C993       H1000   1.062       .  S
C994        C995   1.425   1_556  A
C995       C1002   1.529       .  S
C995        C996   1.423       .  A
C996        C997   1.414   1_554  A
C996       H1001   1.085       .  S
C997        C998   1.433       .  A
C998        C999   1.519       .  S
C999       F1003   1.380       .  S
C999       F1004   1.382       .  S
C999       F1005   1.367       .  S
C1002      F1006   1.374       .  S
C1002      F1007   1.373       .  S
C1002      F1008   1.380       .  S
C1009      C1010   1.390       .  A
C1009      C1014   1.425       .  A
C1009      H1016   1.065   1_556  S
C1010      C1011   1.478       .  A
C1011      C1018   1.502       .  S
C1011      C1012   1.406       .  A
C1012      C1013   1.374       .  A
C1012      H1017   1.085       .  S
C1013      C1014   1.447       .  A
C1014      C1015   1.526       .  S
C1015      F1019   1.382       .  S
C1015      F1020   1.383   1_556  S
C1015      F1021   1.384       .  S
C1018      F1022   1.373       .  S
C1018      F1023   1.342       .  S
C1018      F1024   1.383       .  S
C1025      C1026   1.431       .  A
C1025      C1030   1.417       .  A
C1025      H1032   1.082       .  S
C1026      C1027   1.427       .  A
C1027      C1034   1.517       .  S
C1027      C1028   1.407       .  A
C1028      C1029   1.407       .  A
C1028      H1033   1.076       .  S
C1029      C1030   1.414       .  A
C1030      C1031   1.511       .  S
C1031      F1035   1.385       .  S
C1031      F1036   1.382       .  S
C1031      F1037   1.376       .  S
C1034      F1038   1.375       .  S
C1034      F1039   1.356       .  S
C1034      F1040   1.385       .  S
C1041      C1042   1.425       .  A
C1041      C1046   1.406       .  A
C1041      H1048   1.080       .  S
C1042      C1043   1.409       .  A
C1043      C1050   1.509       .  S
C1043      C1044   1.439       .  A
C1044      C1045   1.448       .  A
C1044      H1049   1.082       .  S
C1045      C1046   1.413       .  A
C1046      C1047   1.537       .  S
C1047      F1051   1.382       .  S
C1047      F1052   1.368       .  S
C1047      F1053   1.378       .  S
C1050      F1054   1.373       .  S
C1050      F1055   1.371       .  S
C1050      F1056   1.383       .  S
C1057      C1058   1.423   1_556  A
C1057      C1062   1.404       .  A
C1057      H1064   1.086       .  S
C1058      C1059   1.417       .  A
C1059      C1066   1.482       .  S
C1059      C1060   1.411       .  A
C1060      C1061   1.427       .  A
C1060      H1065   1.085       .  S
C1061      C1062   1.425   1_554  A
C1062      C1063   1.518       .  S
C1063      F1067   1.388       .  S
C1063      F1068   1.371       .  S
C1063      F1069   1.380       .  S
C1066      F1070   1.376       .  S
C1066      F1071   1.378       .  S
C1066      F1072   1.379       .  S
C1073      C1074   1.388       .  A
C1073      C1078   1.419       .  A
C1073      H1080   1.085       .  S
C1074      C1075   1.447   1_554  A
C1075      C1082   1.526       .  S
C1075      C1076   1.424       .  A
C1076      C1077   1.404   1_556  A
C1076      H1081   1.067       .  S
C1077      C1078   1.467       .  A
C1078      C1079   1.524       .  S
C1079      F1083   1.370       .  S
C1079      F1084   1.376       .  S
C1079      F1085   1.367       .  S
C1082      F1086   1.376       .  S
C1082      F1087   1.383   1_556  S
C1082      F1088   1.384       .  S
C1089      C1090   1.426       .  A
C1089      C1094   1.424       .  A
C1089      H1096   1.084       .  S
C1090      C1091   1.416       .  A
C1091      C1098   1.497       .  S
C1091      C1092   1.430       .  A
C1092      C1093   1.425       .  A
C1092      H1097   1.082       .  S
C1093      C1094   1.419       .  A
C1094      C1095   1.526       .  S
C1095      F1099   1.386       .  S
C1095      F1100   1.381       .  S
C1095      F1101   1.380       .  S
C1098      F1102   1.377       .  S
C1098      F1103   1.381       .  S
C1098      F1104   1.384       .  S
