geometry optimzed in LAMMPS
_audit_creation_date              2020-11-30 
_audit_creation_method            'lammps2cif' 
_symmetry_space_group_name_H-M    'P1' 
_symmetry_Int_Tables_number       1 
_symmetry_cell_setting            triclinic 
loop_ 
_symmetry_equiv_pos_as_xyz 
  x,y,z 
_cell_length_a                    42.2552517 
_cell_length_b                    31.288800956334352 
_cell_length_c                    26.31075102545817 
_cell_angle_alpha                 90.27629498649037 
_cell_angle_beta                  87.50081934075504 
_cell_angle_gamma                 90.22813522866514 
loop_ 
_atom_site_label 
_atom_site_type_symbol 
_atom_site_fract_x 
_atom_site_fract_y 
_atom_site_fract_z 
_atom_site_charge 
N1          N  0.45900300  0.83400523  0.64398488    -0.27300
N2          N  0.47243191  0.86915118  0.62537524    -0.35200
C3          C  0.45127323  0.89028946  0.59830205     0.01000
C4          C  0.42317204  0.86742285  0.59985905     0.07100
C5          C  0.42906269  0.83175860  0.62884084    -0.06000
H6          H  0.45705421  0.91741561  0.57423943     0.07700
H7          H  0.41381125  0.80412421  0.63404686     0.08900
Cu8        Cu  0.02069389  0.88128621  0.62649496     0.44200
Cu9        Cu  0.48359722  0.78670819  0.68053841     0.42000
Cu10       Cu  0.06834626  0.80679011  0.69163088     0.43900
N11         N  0.06983036  0.88325648  0.62362139    -0.34700
N12         N  0.08765082  0.85606608  0.64769641    -0.29000
C13         C  0.11837550  0.86448168  0.63562625    -0.05100
C14         C  0.11994340  0.89898109  0.60267509     0.07200
C15         C  0.08861682  0.90963068  0.59564468     0.01000
H16         H  0.13807072  0.84652009  0.64933736     0.08600
H17         H  0.07994751  0.93378781  0.57055591     0.07700
N18         N  0.04442002  0.75372182  0.72088289    -0.36100
N19         N  0.01420460  0.74503306  0.71475303    -0.28300
C20         C  0.00775220  0.70549853  0.73252471    -0.03600
C21         C  0.03520463  0.68851346  0.75145346     0.05000
C22         C  0.05779403  0.72041897  0.74341198     0.03100
H23         H  0.48507220  0.68989565  0.72944732     0.08200
H24         H  0.08257664  0.71930996  0.75191944     0.07100
C25         C  0.06627523  0.52334280  0.84222393     0.86500
C26         C  0.08571989  0.53500584  0.88793704    -0.53800
C27         C  0.09717279  0.50104862  0.91312244     0.09400
C28         C  0.08813862  0.45745550  0.89060265     0.20300
C29         C  0.08737650  0.49368659  0.80911891    -0.54500
C30         C  0.09964159  0.45981455  0.83414350     0.09500
C31         C  0.04038515  0.49291696  0.86404384    -0.54000
C32         C  0.05153080  0.45821974  0.88987480     0.10100
H33         H  0.09082706  0.56781218  0.89875489     0.14600
H34         H  0.09813609  0.43017394  0.91098775     0.00300
H35         H  0.09327076  0.50015787  0.76929815     0.14900
H36         H  0.01568067  0.49802551  0.85839081     0.14700
C37         C  0.01301139  0.36665089  0.97231112     0.86500
C38         C  0.04014808  0.39184046  0.94396260    -0.53800
C39         C  0.02999544  0.42612819  0.91627289     0.09400
C40         C  0.49363796  0.43069135  0.91880312     0.20300
C41         C  0.49531794  0.40151489  0.00372833    -0.54500
C42         C  0.48441887  0.43449105  0.97573885     0.09500
C43         C  0.49071598  0.35399575  0.93020816    -0.54000
C44         C  0.48078902  0.38732041  0.90237861     0.10100
H45         H  0.06491325  0.38463880  0.94736597     0.14600
H46         H  0.48400597  0.45685558  0.89631557     0.00300
H47         H  0.48994938  0.39857084  0.04423881     0.14900
H48         H  0.48319479  0.32131897  0.92322512     0.14700
N49         N  0.10486402  0.06270790  0.20428290    -0.27300
N50         N  0.09025907  0.02642109  0.21586626    -0.35200
C51         C  0.10964773  0.00151269  0.24165778     0.01000
C52         C  0.13797197  0.02306209  0.24740252     0.07100
C53         C  0.13400216  0.06189805  0.22302023    -0.06000
H54         H  0.10259897  0.97119953  0.25825898     0.07700
H55         H  0.14993462  0.08902896  0.22258417     0.08900
Cu56       Cu  0.04252806  0.01556712  0.20837518     0.44200
Cu57       Cu  0.08273451  0.11312391  0.16880656     0.42000
Cu58       Cu  0.49674085  0.09780366  0.15736541     0.43900
N59         N  0.49370781  0.01580059  0.21503328    -0.34700
N60         N  0.47621581  0.04630722  0.19630363    -0.29000
C61         C  0.44568666  0.03960344  0.21134877    -0.05100
C62         C  0.44412191  0.00321448  0.24133411     0.07200
C63         C  0.47506048  0.98916649  0.24284150     0.01000
H64         H  0.42643798  0.06098532  0.20364726     0.08600
H65         H  0.48358657  0.96248958  0.26432958     0.07700
N66         N  0.02311164  0.14796143  0.12530908    -0.36100
N67         N  0.05374406  0.15459191  0.13042486    -0.28300
C68         C  0.06221015  0.19130181  0.10675590    -0.03600
C69         C  0.03568037  0.20850541  0.08520338     0.05000
C70         C  0.01146446  0.17988176  0.09797141     0.03100
H71         H  0.08576321  0.20488263  0.10676167     0.08200
H72         H  0.48687868  0.18212439  0.08849797     0.07100
N73         N  0.36435551  0.33849826  0.68299982    -0.27300
N74         N  0.34922020  0.37222896  0.70211947    -0.35200
C75         C  0.36687156  0.39094152  0.73710237     0.01000
C76         C  0.39470351  0.36838958  0.73987530     0.07100
C77         C  0.39242403  0.33526101  0.70509191    -0.06000
H78         H  0.35903284  0.41721421  0.76134362     0.07700
H79         H  0.40870583  0.30890124  0.69937324     0.08900
Cu80       Cu  0.30292409  0.38715292  0.68883431     0.44200
Cu81       Cu  0.34342830  0.29514307  0.63429693     0.42000
Cu82       Cu  0.26114805  0.32073991  0.60602715     0.43900
N83         N  0.25427601  0.38683096  0.68755334    -0.34700
N84         N  0.23832503  0.36161475  0.65749003    -0.29000
C85         C  0.20737180  0.36306251  0.67192060    -0.05100
C86         C  0.20377337  0.39071569  0.71318390     0.07200
C87         C  0.23410415  0.40519603  0.72170762     0.01000
H88         H  0.18937064  0.34304712  0.65595765     0.08600
H89         H  0.24128016  0.42588702  0.75222623     0.07700
N90         N  0.28677501  0.27031373  0.57437329    -0.36100
N91         N  0.31532398  0.25869693  0.58738565    -0.28300
C92         C  0.32145993  0.21941150  0.56830046    -0.03600
C93         C  0.29565213  0.20573498  0.54130603     0.05000
C94         C  0.27441770  0.23944814  0.54582533     0.03100
H95         H  0.34222338  0.20128304  0.57691046     0.08200
H96         H  0.25066829  0.24070088  0.53224868     0.07100
C97         C  0.26124123  0.03536117  0.46538567     0.86500
C98         C  0.24039637  0.03840998  0.41921630    -0.53800
C99         C  0.22722386  0.00076334  0.40461387     0.09400
C100        C  0.23682390  0.96259259  0.43704389     0.20300
C101        C  0.24091260  0.01289578  0.50691985    -0.54500
C102        C  0.22760425  0.97543955  0.49232296     0.09500
C103        C  0.28624001  0.00166789  0.44865881    -0.54000
C104        C  0.27357904  0.96342983  0.43320496     0.10100
H105        H  0.23607437  0.06833945  0.39996074     0.14600
H106        H  0.22554762  0.93233586  0.42554500     0.00300
H107        H  0.23593792  0.02688833  0.54429293     0.14900
H108        H  0.31136843  0.00789050  0.44665687     0.14700
C109        C  0.30437410  0.86028962  0.36654926     0.86500
C110        C  0.28032041  0.89361332  0.38619806    -0.53800
C111        C  0.29324190  0.92774250  0.41091509     0.09400
C112        C  0.32982811  0.92514219  0.41301250     0.20300
C113        C  0.32893266  0.88540951  0.33379931    -0.54500
C114        C  0.34221050  0.91942762  0.35742100     0.09500
C115        C  0.32217353  0.84815034  0.41435803    -0.54000
C116        C  0.33599515  0.88181228  0.43795554     0.10100
H117        H  0.25528814  0.88990461  0.38017905     0.14600
H118        H  0.34119539  0.95216405  0.43250215     0.00300
H119        H  0.33575537  0.87630206  0.29495069     0.14900
H120        H  0.32435931  0.81635538  0.42941724     0.14700
N121        N  0.21769176  0.57026013  0.11308158    -0.27300
N122        N  0.23416493  0.53648124  0.09766990    -0.35200
C123        C  0.21574186  0.51091161  0.07039728     0.01000
C124        C  0.18622647  0.52942102  0.06876853     0.07100
C125        C  0.18828439  0.56705498  0.09608215    -0.06000
H126        H  0.22434865  0.48398518  0.04791367     0.07700
H127        H  0.17104654  0.59255508  0.09805105     0.08900
Cu128      Cu  0.28263050  0.53307181  0.09992432     0.44200
Cu129      Cu  0.23795764  0.62338990  0.14512249     0.42000
Cu130      Cu  0.32461220  0.62609132  0.14043537     0.43900
N131        N  0.33070108  0.54116688  0.08833867    -0.34700
N132        N  0.34660603  0.57513093  0.10310979    -0.29000
C133        C  0.37722995  0.57087886  0.08755056    -0.05100
C134        C  0.38028923  0.53278939  0.06088984     0.07200
C135        C  0.35043617  0.51473522  0.06243333     0.01000
H136        H  0.39562074  0.59420055  0.09394515     0.08600
H137        H  0.34347955  0.48466806  0.04567825     0.07700
N138        N  0.29577169  0.67165518  0.17598207    -0.36100
N139        N  0.26443784  0.67120029  0.17690557    -0.28300
C140        C  0.25331851  0.70358963  0.20625457    -0.03600
C141        C  0.27891450  0.72512782  0.22477530     0.05000
C142        C  0.30540053  0.70413000  0.20504606     0.03100
H143        H  0.22854763  0.70914464  0.21611124     0.08200
H144        H  0.32981056  0.71060045  0.21339362     0.07100
C145        C  0.27856430  0.75762613  0.26516617    -0.00200
C146        C  0.27018088  0.79958542  0.25406769    -0.12100
C147        C  0.27564068  0.83270483  0.28865519     0.02100
C148        C  0.29015342  0.82392107  0.33529366    -0.00300
C149        C  0.29452505  0.78064873  0.34827939    -0.12000
C150        C  0.28926971  0.74785765  0.31348788     0.01900
H151        H  0.26105362  0.80682829  0.21719131     0.14900
H152        H  0.30328455  0.77135377  0.38431480     0.14900
C153        C  0.29591212  0.70432647  0.32766752     0.36600
C154        C  0.26794004  0.87568663  0.27369108     0.36500
N155        N  0.30119064  0.66943878  0.33888664    -0.43800
N156        N  0.26173369  0.91010312  0.26175409    -0.43800
C157        C  0.27150132  0.07987399  0.48336371    -0.00200
C158        C  0.30356818  0.09161475  0.48718485    -0.12100
C159        C  0.31228318  0.13230124  0.50497464     0.02100
C160        C  0.28871112  0.16233120  0.52034720    -0.00300
C161        C  0.25684291  0.15054876  0.51628601    -0.12000
C162        C  0.24811263  0.11063974  0.49781605     0.01900
H163        H  0.32226340  0.06955374  0.47647052     0.14900
H164        H  0.23811057  0.17227794  0.52839011     0.14900
C165        C  0.21452002  0.10252507  0.49428356     0.36600
C166        C  0.34563553  0.14223492  0.50549725     0.36500
N167        N  0.18765659  0.09633479  0.49106817    -0.43800
N168        N  0.37248402  0.14967895  0.50568020    -0.43800
C169        C  0.16299459  0.01157907  0.28296537    -0.00200
C170        C  0.15448075  0.98694655  0.32602006    -0.12100
C171        C  0.17566591  0.98011930  0.36451402     0.02100
C172        C  0.20612857  0.99876154  0.36085294    -0.00300
C173        C  0.21554539  0.02044944  0.31597397    -0.12000
C174        C  0.19448344  0.02662897  0.27702804     0.01900
H175        H  0.13059734  0.97453219  0.33119546     0.14900
H176        H  0.23932086  0.03356625  0.31187789     0.14900
C177        C  0.20603262  0.04803267  0.23139021     0.36600
C178        C  0.16437900  0.95570647  0.40798403     0.36500
N179        N  0.21550251  0.06504029  0.19480721    -0.43800
N180        N  0.15418745  0.93532874  0.44145739    -0.43800
C181        C  0.36719415  0.94599151  0.33074779    -0.00200
C182        C  0.36251602  0.95897936  0.28041022    -0.12100
C183        C  0.38678889  0.97889024  0.25094487     0.02100
C184        C  0.41660310  0.98587621  0.27163204    -0.00300
C185        C  0.42096667  0.97424303  0.32223334    -0.12000
C186        C  0.39671133  0.95482112  0.35191043     0.03900
H187        H  0.33999030  0.95256325  0.26357682     0.14900
H188        H  0.44373296  0.97994322  0.33862544     0.14900
C189        C  0.40394591  0.94281384  0.40287973     0.36600
C190        C  0.38110955  0.98936050  0.19876063     0.36500
N191        N  0.41113125  0.93436819  0.44352723    -0.43800
N192        N  0.37658445  0.99769048  0.15689372    -0.43800
C193        C  0.46064701  0.46587045  0.99620604    -0.00200
C194        C  0.43464557  0.47471529  0.96651149    -0.12100
C195        C  0.40891966  0.49823797  0.98608717     0.02100
C196        C  0.40900184  0.51411202  0.03624787    -0.00300
C197        C  0.43589048  0.50846837  0.06476093    -0.12000
C198        C  0.46160958  0.48433534  0.04538583     0.01900
H199        H  0.43341034  0.46142952  0.92858799     0.14900
H200        H  0.43615915  0.52119340  0.10316851     0.14900
C201        C  0.48827632  0.47901400  0.07716100     0.36600
C202        C  0.38261673  0.50531578  0.95390247     0.36500
N203        N  0.00927247  0.47494439  0.10350245    -0.43800
N204        N  0.36163262  0.51091483  0.92792708    -0.43800
C205        C  0.03212991  0.24986842  0.05791812    -0.00200
C206        C  0.50236862  0.26940215  0.06100978    -0.12100
C207        C  0.49617796  0.30650054  0.03413543     0.02100
C208        C  0.02059616  0.32717596  0.00434042    -0.00300
C209        C  0.05078167  0.30789118  0.00191668    -0.12000
C210        C  0.05656601  0.26949007  0.02768524     0.01900
H211        H  0.48331004  0.25534596  0.08431753     0.14900
H212        H  0.06977626  0.32117414  0.97812190     0.14900
C213        C  0.08714195  0.24969048  0.01932436     0.36600
C214        C  0.46391006  0.32168218  0.03777729     0.36500
N215        N  0.11166041  0.23389695  0.01211118    -0.43800
N216        N  0.43800230  0.33344262  0.04183364    -0.43800
C217        C  0.45868246  0.38213700  0.86095787    -0.00200
C218        C  0.47049046  0.38389509  0.81035943    -0.12100
C219        C  0.45012920  0.37879856  0.77005518     0.02100
C220        C  0.41744452  0.37256722  0.78051412    -0.00300
C221        C  0.40570602  0.37141802  0.83116165    -0.12000
C222        C  0.42602110  0.37585978  0.87131890     0.01900
H223        H  0.49560735  0.38917500  0.80242678     0.14900
H224        H  0.38053266  0.36687107  0.83934944     0.14900
C225        C  0.41254217  0.37513130  0.92263966     0.36600
C226        C  0.46300672  0.38168087  0.71847820     0.36500
N227        N  0.40117744  0.37503449  0.96343926    -0.43800
N228        N  0.47329666  0.38414403  0.67710694    -0.43800
C229        C  0.17495247  0.40012626  0.74560947    -0.00200
C230        C  0.17846644  0.40756940  0.79774579    -0.12100
C231        C  0.15341630  0.42298133  0.82909378     0.02100
C232        C  0.12394406  0.43190284  0.80807422    -0.00300
C233        C  0.11957866  0.42029009  0.75708874    -0.12000
C234        C  0.14463159  0.40460162  0.72583712     0.01900
H235        H  0.20127194  0.40238889  0.81402844     0.14900
H236        H  0.09682758  0.42577886  0.74073279     0.14900
C237        C  0.13884950  0.39650799  0.67300821     0.36600
C238        C  0.15972995  0.43060926  0.88176586     0.36500
N239        N  0.13390343  0.38997156  0.63075099    -0.43800
N240        N  0.16593586  0.43518405  0.92384855    -0.43800
C241        C  0.11958427  0.50715815  0.95400858    -0.00200
C242        C  0.14719800  0.53097715  0.94280833    -0.12100
C243        C  0.16941004  0.53780930  0.97966264     0.02100
C244        C  0.16371543  0.52147785  0.02902177    -0.00300
C245        C  0.13612522  0.49798817  0.04057045    -0.12000
C246        C  0.11408287  0.49048187  0.00330288     0.01900
H247        H  0.15166057  0.54357684  0.90480503     0.14900
H248        H  0.13178244  0.48568955  0.07872763     0.14900
C249        C  0.08561583  0.46719019  0.01737584     0.36600
C250        C  0.19796520  0.56139150  0.96595230     0.36500
N251        N  0.06294215  0.44857052  0.02990639    -0.43800
N252        N  0.22094150  0.58006378  0.95502626    -0.43800
C253        C  0.35704064  0.87624804  0.48120397    -0.00200
C254        C  0.35471483  0.90486001  0.52252664    -0.12100
C255        C  0.37579721  0.90241559  0.56217203     0.02100
C256        C  0.39898077  0.87015114  0.56138749    -0.00300
C257        C  0.40104086  0.84128245  0.52062090    -0.12000
C258        C  0.38089039  0.84453034  0.48020608     0.01900
H259        H  0.33679276  0.92960241  0.52337678     0.14900
H260        H  0.41956169  0.81731818  0.51921665     0.14900
C261        C  0.38731181  0.81747513  0.43632608     0.36600
C262        C  0.37347663  0.93353515  0.60278999     0.36500
N263        N  0.39263118  0.79597531  0.40109164    -0.43800
N264        N  0.37157369  0.95867075  0.63517636    -0.43800
C265        C  0.04108189  0.64486257  0.77180095    -0.00200
C266        C  0.07225612  0.62950474  0.76885588    -0.12100
C267        C  0.08038774  0.59075498  0.79068701     0.02100
C268        C  0.05676196  0.56423552  0.81448457    -0.00300
C269        C  0.02523462  0.57912698  0.81613775    -0.12000
C270        C  0.01733459  0.61895174  0.79573689     0.01900
H271        H  0.09091446  0.64820722  0.75010261     0.14900
H272        H  0.00652474  0.56129949  0.83559318     0.14900
C273        C  0.48497727  0.63305312  0.80316717     0.36600
C274        C  0.11372820  0.58027883  0.78967948     0.36500
N275        N  0.45893780  0.64385511  0.80962374    -0.43800
N276        N  0.14043391  0.57208641  0.78883902    -0.43800
C277        C  0.14862178  0.91893437  0.57781162    -0.00200
C278        C  0.17426111  0.89309707  0.56095562    -0.12100
C279        C  0.20059618  0.91068071  0.53378876     0.02100
C280        C  0.20172715  0.95491202  0.52382713    -0.00300
C281        C  0.17678021  0.98082519  0.54265341    -0.12000
C282        C  0.15046038  0.96343689  0.56916532     0.01900
H283        H  0.17335520  0.85895700  0.56773972     0.14900
H284        H  0.17739239  0.01488566  0.53530929     0.14900
C285        C  0.12599985  0.99240797  0.58763899     0.36600
C286        C  0.22629821  0.88298777  0.51718294     0.36500
N287        N  0.10642156  0.01575779  0.60220452    -0.43800
N288        N  0.24698687  0.86089467  0.50393203    -0.43800
N289        N  0.95900303  0.83400523  0.64398486    -0.27300
N290        N  0.97243193  0.86915118  0.62537520    -0.35200
C291        C  0.95127322  0.89028945  0.59830206     0.01000
C292        C  0.92317204  0.86742285  0.59985909     0.07100
C293        C  0.92906269  0.83175860  0.62884088    -0.06000
H294        H  0.95705417  0.91741563  0.57423944     0.07700
H295        H  0.91381126  0.80412425  0.63404696     0.08900
Cu296      Cu  0.52069380  0.88128621  0.62649496     0.44200
Cu297      Cu  0.98359730  0.78670822  0.68053839     0.42000
Cu298      Cu  0.56834633  0.80679008  0.69163087     0.43900
N299        N  0.56983029  0.88325646  0.62362124    -0.34700
N300        N  0.58765077  0.85606606  0.64769622    -0.29000
C301        C  0.61837542  0.86448175  0.63562612    -0.05100
C302        C  0.61994336  0.89898111  0.60267498     0.07200
C303        C  0.58861674  0.90963068  0.59564447     0.01000
H304        H  0.63807070  0.84652017  0.64933735     0.08600
H305        H  0.57994744  0.93378773  0.57055575     0.07700
N306        N  0.54441996  0.75372181  0.72088287    -0.36100
N307        N  0.51420454  0.74503298  0.71475299    -0.28300
C308        C  0.50775222  0.70549845  0.73252469    -0.03600
C309        C  0.53520464  0.68851342  0.75145343     0.05000
C310        C  0.55779401  0.72041899  0.74341197     0.03100
H311        H  0.98507221  0.68989587  0.72944741     0.08200
H312        H  0.58257661  0.71931002  0.75191933     0.07100
C313        C  0.56627523  0.52334281  0.84222395     0.86500
C314        C  0.58571994  0.53500584  0.88793703    -0.53800
C315        C  0.59717284  0.50104861  0.91312241     0.09400
C316        C  0.58813863  0.45745550  0.89060265     0.20300
C317        C  0.58737642  0.49368655  0.80911889    -0.54500
C318        C  0.59964155  0.45981452  0.83414347     0.09500
C319        C  0.54038511  0.49291699  0.86404388    -0.54000
C320        C  0.55153082  0.45821975  0.88987485     0.10100
H321        H  0.59082712  0.56781215  0.89875492     0.14600
H322        H  0.59813614  0.43017396  0.91098768     0.00300
H323        H  0.59327061  0.50015784  0.76929812     0.14900
H324        H  0.51568074  0.49802552  0.85839082     0.14700
C325        C  0.51301142  0.36665087  0.97231110     0.86500
C326        C  0.54014815  0.39184043  0.94396258    -0.53800
C327        C  0.52999546  0.42612817  0.91627285     0.09400
C328        C  0.99363791  0.43069137  0.91880312     0.20300
C329        C  0.99531784  0.40151489  0.00372832    -0.54500
C330        C  0.98441878  0.43449103  0.97573883     0.09500
C331        C  0.99071601  0.35399575  0.93020815    -0.54000
C332        C  0.98078903  0.38732040  0.90237859     0.10100
H333        H  0.56491324  0.38463888  0.94736601     0.14600
H334        H  0.98400592  0.45685557  0.89631555     0.00300
H335        H  0.98994924  0.39857084  0.04423879     0.14900
H336        H  0.98319484  0.32131893  0.92322512     0.14700
N337        N  0.60486402  0.06270788  0.20428289    -0.27300
N338        N  0.59025908  0.02642105  0.21586626    -0.35200
C339        C  0.60964779  0.00151268  0.24165776     0.01000
C340        C  0.63797202  0.02306210  0.24740252     0.07100
C341        C  0.63400218  0.06189808  0.22302024    -0.06000
H342        H  0.60259906  0.97119950  0.25825898     0.07700
H343        H  0.64993461  0.08902903  0.22258416     0.08900
Cu344      Cu  0.54252800  0.01556711  0.20837519     0.44200
Cu345      Cu  0.58273440  0.11312388  0.16880659     0.42000
Cu346      Cu  0.99674092  0.09780360  0.15736510     0.43900
N347        N  0.99370784  0.01580059  0.21503330    -0.34700
N348        N  0.97621582  0.04630722  0.19630361    -0.29000
C349        C  0.94568670  0.03960334  0.21134877    -0.05100
C350        C  0.94412191  0.00321436  0.24133403     0.07200
C351        C  0.97506052  0.98916647  0.24284149     0.01000
H352        H  0.92643792  0.06098526  0.20364730     0.08600
H353        H  0.98358665  0.96248958  0.26432962     0.07700
N354        N  0.52311161  0.14796143  0.12530912    -0.36100
N355        N  0.55374403  0.15459187  0.13042485    -0.28300
C356        C  0.56221015  0.19130179  0.10675597    -0.03600
C357        C  0.53568038  0.20850547  0.08520353     0.05000
C358        C  0.51146441  0.17988181  0.09797148     0.03100
H359        H  0.58576324  0.20488257  0.10676176     0.08200
H360        H  0.98687861  0.18212430  0.08849785     0.07100
N361        N  0.86435550  0.33849826  0.68299984    -0.27300
N362        N  0.84922018  0.37222895  0.70211946    -0.35200
C363        C  0.86687154  0.39094152  0.73710239     0.01000
C364        C  0.89470352  0.36838960  0.73987528     0.07100
C365        C  0.89242406  0.33526100  0.70509190    -0.06000
H366        H  0.85903282  0.41721416  0.76134363     0.07700
H367        H  0.90870582  0.30890131  0.69937323     0.08900
Cu368      Cu  0.80292402  0.38715291  0.68883431     0.44200
Cu369      Cu  0.84342836  0.29514306  0.63429691     0.42000
Cu370      Cu  0.76114811  0.32073993  0.60602717     0.43900
N371        N  0.75427600  0.38683095  0.68755334    -0.34700
N372        N  0.73832502  0.36161475  0.65749004    -0.29000
C373        C  0.70737180  0.36306252  0.67192064    -0.05100
C374        C  0.70377340  0.39071566  0.71318398     0.07200
C375        C  0.73410417  0.40519601  0.72170767     0.01000
H376        H  0.68937063  0.34304721  0.65595768     0.08600
H377        H  0.74128021  0.42588702  0.75222625     0.07700
N378        N  0.78677498  0.27031370  0.57437330    -0.36100
N379        N  0.81532395  0.25869694  0.58738569    -0.28300
C380        C  0.82145995  0.21941150  0.56830048    -0.03600
C381        C  0.79565212  0.20573496  0.54130603     0.05000
C382        C  0.77441770  0.23944810  0.54582535     0.03100
H383        H  0.84222334  0.20128316  0.57691043     0.08200
H384        H  0.75066820  0.24070081  0.53224866     0.07100
C385        C  0.76124123  0.03536110  0.46538574     0.86500
C386        C  0.74039644  0.03840997  0.41921630    -0.53800
C387        C  0.72722390  0.00076335  0.40461387     0.09400
C388        C  0.73682388  0.96259256  0.43704389     0.20300
C389        C  0.74091255  0.01289575  0.50691988    -0.54500
C390        C  0.72760425  0.97543948  0.49232296     0.09500
C391        C  0.78623994  0.00166776  0.44865897    -0.54000
C392        C  0.77357901  0.96342976  0.43320499     0.10100
H393        H  0.73607452  0.06833945  0.39996072     0.14600
H394        H  0.72554759  0.93233586  0.42554493     0.00300
H395        H  0.73593783  0.02688832  0.54429287     0.14900
H396        H  0.81136846  0.00789036  0.44665716     0.14700
C397        C  0.80437414  0.86028961  0.36654925     0.86500
C398        C  0.78032037  0.89361328  0.38619801    -0.53800
C399        C  0.79324188  0.92774246  0.41091508     0.09400
C400        C  0.82982808  0.92514214  0.41301252     0.20300
C401        C  0.82893270  0.88540947  0.33379932    -0.54500
C402        C  0.84221053  0.91942757  0.35742105     0.09500
C403        C  0.82217355  0.84815031  0.41435804    -0.54000
C404        C  0.83599514  0.88181226  0.43795559     0.10100
H405        H  0.75528819  0.88990455  0.38017902     0.14600
H406        H  0.84119537  0.95216404  0.43250223     0.00300
H407        H  0.83575545  0.87630205  0.29495070     0.14900
H408        H  0.82435939  0.81635535  0.42941719     0.14700
N409        N  0.71769181  0.57026014  0.11308163    -0.27300
N410        N  0.73416499  0.53648124  0.09766992    -0.35200
C411        C  0.71574193  0.51091161  0.07039727     0.01000
C412        C  0.68622654  0.52942103  0.06876849     0.07100
C413        C  0.68828445  0.56705497  0.09608214    -0.06000
H414        H  0.72434876  0.48398519  0.04791374     0.07700
H415        H  0.67104655  0.59255506  0.09805102     0.08900
Cu416      Cu  0.78263057  0.53307153  0.09992433     0.44200
Cu417      Cu  0.73795769  0.62338985  0.14512281     0.42000
Cu418      Cu  0.82461226  0.62609133  0.14043540     0.43900
N419        N  0.83070113  0.54116684  0.08833866    -0.34700
N420        N  0.84660605  0.57513089  0.10310976    -0.29000
C421        C  0.87722999  0.57087883  0.08755055    -0.05100
C422        C  0.88028923  0.53278935  0.06088986     0.07200
C423        C  0.85043621  0.51473510  0.06243337     0.01000
H424        H  0.89562076  0.59420047  0.09394508     0.08600
H425        H  0.84347963  0.48466801  0.04567839     0.07700
N426        N  0.79577167  0.67165510  0.17598228    -0.36100
N427        N  0.76443782  0.67120032  0.17690568    -0.28300
C428        C  0.75331848  0.70358969  0.20625465    -0.03600
C429        C  0.77891448  0.72512780  0.22477543     0.05000
C430        C  0.80540051  0.70412991  0.20504629     0.03100
H431        H  0.72854761  0.70914473  0.21611140     0.08200
H432        H  0.82981052  0.71060036  0.21339388     0.07100
C433        C  0.77856433  0.75762608  0.26516628    -0.00200
C434        C  0.77018097  0.79958538  0.25406773    -0.12100
C435        C  0.77564078  0.83270480  0.28865519     0.02100
C436        C  0.79015351  0.82392105  0.33529365    -0.00300
C437        C  0.79452516  0.78064872  0.34827942    -0.12000
C438        C  0.78926982  0.74785763  0.31348794     0.01900
H439        H  0.76105373  0.80682821  0.21719140     0.14900
H440        H  0.80328465  0.77135377  0.38431482     0.14900
C441        C  0.79591218  0.70432644  0.32766765     0.36600
C442        C  0.76794013  0.87568661  0.27369105     0.36500
N443        N  0.80119053  0.66943876  0.33888699    -0.43800
N444        N  0.76173379  0.91010311  0.26175410    -0.43800
C445        C  0.77150135  0.07987390  0.48336377    -0.00200
C446        C  0.80356822  0.09161467  0.48718488    -0.12100
C447        C  0.81228319  0.13230114  0.50497474     0.02100
C448        C  0.78871115  0.16233115  0.52034721    -0.00300
C449        C  0.75684296  0.15054868  0.51628596    -0.12000
C450        C  0.74811265  0.11063967  0.49781604     0.01900
H451        H  0.82226346  0.06955365  0.47647049     0.14900
H452        H  0.73811059  0.17227793  0.52839006     0.14900
C453        C  0.71452004  0.10252504  0.49428355     0.36600
C454        C  0.84563552  0.14223479  0.50549747     0.36500
N455        N  0.68765659  0.09633482  0.49106818    -0.43800
N456        N  0.87248399  0.14967869  0.50568026    -0.43800
C457        C  0.66299466  0.01157907  0.28296538    -0.00200
C458        C  0.65448083  0.98694653  0.32602007    -0.12100
C459        C  0.67566601  0.98011929  0.36451403     0.02100
C460        C  0.70612865  0.99876155  0.36085292    -0.00300
C461        C  0.71554552  0.02044945  0.31597392    -0.12000
C462        C  0.69448349  0.02662897  0.27702804     0.01900
H463        H  0.63059743  0.97453218  0.33119547     0.14900
H464        H  0.73932090  0.03356620  0.31187782     0.14900
C465        C  0.70603262  0.04803269  0.23139021     0.36600
C466        C  0.66437904  0.95570647  0.40798404     0.36500
N467        N  0.71550257  0.06504029  0.19480722    -0.43800
N468        N  0.65418736  0.93532878  0.44145735    -0.43800
C469        C  0.86719413  0.94599150  0.33074782    -0.00200
C470        C  0.86251592  0.95897936  0.28041025    -0.12100
C471        C  0.88678881  0.97889025  0.25094489     0.02100
C472        C  0.91660307  0.98587615  0.27163200    -0.00300
C473        C  0.92096659  0.97424304  0.32223331    -0.12000
C474        C  0.89671130  0.95482114  0.35191045     0.03900
H475        H  0.83999026  0.95256325  0.26357693     0.14900
H476        H  0.94373296  0.97994324  0.33862544     0.14900
C477        C  0.90394594  0.94281384  0.40287973     0.36600
C478        C  0.88110948  0.98936050  0.19876064     0.36500
N479        N  0.91113135  0.93436819  0.44352720    -0.43800
N480        N  0.87658452  0.99769048  0.15689370    -0.43800
C481        C  0.96064693  0.46587042  0.99620606    -0.00200
C482        C  0.93464549  0.47471528  0.96651150    -0.12100
C483        C  0.90891961  0.49823799  0.98608718     0.02100
C484        C  0.90900181  0.51411201  0.03624787    -0.00300
C485        C  0.93589044  0.50846834  0.06476095    -0.12000
C486        C  0.96160954  0.48433531  0.04538586     0.01900
H487        H  0.93341025  0.46142949  0.92858800     0.14900
H488        H  0.93615907  0.52119342  0.10316852     0.14900
C489        C  0.98827635  0.47901402  0.07716099     0.36600
C490        C  0.88261668  0.50531579  0.95390249     0.36500
N491        N  0.50927240  0.47494437  0.10350254    -0.43800
N492        N  0.86163264  0.51091483  0.92792703    -0.43800
C493        C  0.53212991  0.24986845  0.05791819    -0.00200
C494        C  0.00236865  0.26940217  0.06100975    -0.12100
C495        C  0.99617797  0.30650053  0.03413544     0.02100
C496        C  0.52059616  0.32717595  0.00434042    -0.00300
C497        C  0.55078171  0.30789119  0.00191666    -0.12000
C498        C  0.55656601  0.26949005  0.02768526     0.01900
H499        H  0.98331000  0.25534592  0.08431761     0.14900
H500        H  0.56977625  0.32117409  0.97812194     0.14900
C501        C  0.58714195  0.24969047  0.01932442     0.36600
C502        C  0.96391011  0.32168217  0.03777730     0.36500
N503        N  0.61166046  0.23389695  0.01211152    -0.43800
N504        N  0.93800235  0.33344264  0.04183364    -0.43800
C505        C  0.95868247  0.38213698  0.86095788    -0.00200
C506        C  0.97049052  0.38389509  0.81035943    -0.12100
C507        C  0.95012923  0.37879857  0.77005518     0.02100
C508        C  0.91744455  0.37256722  0.78051409    -0.00300
C509        C  0.90570604  0.37141801  0.83116162    -0.12000
C510        C  0.92602110  0.37585980  0.87131891     0.01900
H511        H  0.99560732  0.38917497  0.80242681     0.14900
H512        H  0.88053268  0.36687105  0.83934938     0.14900
C513        C  0.91254210  0.37513131  0.92263966     0.36600
C514        C  0.96300677  0.38168087  0.71847820     0.36500
N515        N  0.90117731  0.37503449  0.96343923    -0.43800
N516        N  0.97329676  0.38414403  0.67710697    -0.43800
C517        C  0.67495247  0.40012628  0.74560949    -0.00200
C518        C  0.67846646  0.40756943  0.79774580    -0.12100
C519        C  0.65341631  0.42298136  0.82909376     0.02100
C520        C  0.62394405  0.43190281  0.80807422    -0.00300
C521        C  0.61957861  0.42029008  0.75708873    -0.12000
C522        C  0.64463158  0.40460164  0.72583713     0.01900
H523        H  0.70127196  0.40238893  0.81402845     0.14900
H524        H  0.59682759  0.42577880  0.74073285     0.14900
C525        C  0.63884944  0.39650798  0.67300823     0.36600
C526        C  0.65972996  0.43060928  0.88176584     0.36500
N527        N  0.63390329  0.38997157  0.63075103    -0.43800
N528        N  0.66593576  0.43518404  0.92384858    -0.43800
C529        C  0.61958431  0.50715814  0.95400859    -0.00200
C530        C  0.64719803  0.53097719  0.94280836    -0.12100
C531        C  0.66941010  0.53780931  0.97966262     0.02100
C532        C  0.66371550  0.52147783  0.02902174    -0.00300
C533        C  0.63612529  0.49798815  0.04057045    -0.12000
C534        C  0.61408293  0.49048182  0.00330291     0.01900
H535        H  0.65166056  0.54357692  0.90480505     0.14900
H536        H  0.63178254  0.48568955  0.07872764     0.14900
C537        C  0.58561586  0.46719018  0.01737587     0.36600
C538        C  0.69796527  0.56139149  0.96595227     0.36500
N539        N  0.56294212  0.44857059  0.02990635    -0.43800
N540        N  0.72094159  0.58006377  0.95502627    -0.43800
C541        C  0.85704068  0.87624805  0.48120397    -0.00200
C542        C  0.85471489  0.90486005  0.52252661    -0.12100
C543        C  0.87579723  0.90241563  0.56217206     0.02100
C544        C  0.89898077  0.87015113  0.56138754    -0.00300
C545        C  0.90104090  0.84128247  0.52062088    -0.12000
C546        C  0.88089043  0.84453035  0.48020607     0.01900
H547        H  0.83679281  0.92960242  0.52337674     0.14900
H548        H  0.91956174  0.81731822  0.51921662     0.14900
C549        C  0.88731180  0.81747510  0.43632609     0.36600
C550        C  0.87347655  0.93353515  0.60279009     0.36500
N551        N  0.89263124  0.79597531  0.40109164    -0.43800
N552        N  0.87157354  0.95867066  0.63517660    -0.43800
C553        C  0.54108193  0.64486252  0.77180081    -0.00200
C554        C  0.57225618  0.62950472  0.76885584    -0.12100
C555        C  0.58038780  0.59075498  0.79068701     0.02100
C556        C  0.55676199  0.56423554  0.81448456    -0.00300
C557        C  0.52523465  0.57912702  0.81613774    -0.12000
C558        C  0.51733461  0.61895175  0.79573686     0.01900
H559        H  0.59091454  0.64820726  0.75010263     0.14900
H560        H  0.50652477  0.56129955  0.83559321     0.14900
C561        C  0.98497729  0.63305312  0.80316726     0.36600
C562        C  0.61372827  0.58027880  0.78967950     0.36500
N563        N  0.95893784  0.64385514  0.80962409    -0.43800
N564        N  0.64043399  0.57208641  0.78883902    -0.43800
C565        C  0.64862180  0.91893438  0.57781163    -0.00200
C566        C  0.67426112  0.89309710  0.56095564    -0.12100
C567        C  0.70059619  0.91068063  0.53378871     0.02100
C568        C  0.70172719  0.95491195  0.52382713    -0.00300
C569        C  0.67678028  0.98082516  0.54265342    -0.12000
C570        C  0.65046044  0.96343690  0.56916534     0.01900
H571        H  0.67335518  0.85895692  0.56773979     0.14900
H572        H  0.67739249  0.01488562  0.53530924     0.14900
C573        C  0.62599994  0.99240797  0.58763899     0.36600
C574        C  0.72629819  0.88298766  0.51718289     0.36500
N575        N  0.60642165  0.01575779  0.60220452    -0.43800
N576        N  0.74698685  0.86089448  0.50393209    -0.43800
loop_ 
_geom_bond_atom_site_label_1 
_geom_bond_atom_site_label_2 
_geom_bond_distance 
_geom_bond_site_symmetry_2 
_ccdc_geom_bond_type 
N1            N2   1.322       .  A
N1            C5   1.344       .  A
N1           Cu9   2.076       .  S
N2            C3   1.345       .  A
N2         Cu296   2.074       .  S
C3            C4   1.383       .  A
C3            H6   1.082       .  S
C4            C5   1.384       .  A
C4          C256   1.473       .  S
C5            H7   1.082       .  S
Cu8          N11   2.075       .  S
Cu8         N290   2.074   1_455  S
Cu9         N307   2.076       .  S
Cu10         N12   2.075       .  S
Cu10         N18   2.074       .  S
N11          N12   1.321       .  A
N11          C15   1.343       .  A
N12          C13   1.348       .  A
C13          C14   1.387       .  A
C13          H16   1.082       .  S
C14          C15   1.387       .  A
C14         C277   1.488       .  S
C15          H17   1.081       .  S
N18          N19   1.321       .  A
N18          C22   1.340       .  A
N19          C20   1.347       .  A
N19        Cu297   2.076   1_455  S
C20          C21   1.391       .  A
C20         H311   1.080   1_455  S
C21          C22   1.389       .  A
C21         C265   1.495       .  S
C22          H24   1.081       .  S
H23         C308   1.080       .  S
C25          C26   1.528       .  S
C25          C31   1.541       .  S
C25          C29   1.532       .  S
C25         C268   1.539       .  S
C26          H33   1.087       .  S
C26          C27   1.357       .  D
C27          C28   1.538       .  S
C27         C241   1.475       .  S
C28          C32   1.548       .  S
C28          C30   1.545       .  S
C28          H34   1.105       .  S
C29          H35   1.086       .  S
C29          C30   1.366       .  D
C30         C232   1.493       .  S
C31          H36   1.074       .  S
C31          C32   1.379       .  D
C32          C39   1.504       .  S
C37          C38   1.554       .  S
C37         C331   1.535   1_455  S
C37         C329   1.541   1_456  S
C37         C208   1.541   1_556  S
C38          H45   1.079       .  S
C38          C39   1.380       .  D
C39         C328   1.542   1_455  S
C40          C44   1.527       .  S
C40          C42   1.535       .  S
C40         C327   1.542       .  S
C40          H46   1.102       .  S
C41         C325   1.541   1_554  S
C41          H47   1.084       .  S
C41          C42   1.364   1_554  D
C42         C193   1.489       .  S
C43         C325   1.535       .  S
C43          H48   1.087       .  S
C43          C44   1.355       .  D
C44         C217   1.474       .  S
N49          N50   1.321       .  A
N49          C53   1.346       .  A
N49         Cu57   2.082       .  S
N50          C51   1.341       .  A
N50         Cu56   2.062       .  S
C51          C52   1.385       .  A
C51          H54   1.081   1_545  S
C52          C53   1.391       .  A
C52         C169   1.488       .  S
C53          H55   1.081       .  S
Cu56        N347   2.063   1_455  S
Cu57         N67   2.083       .  S
Cu58         N60   2.080       .  S
Cu58        N354   2.082       .  S
N59          N60   1.320       .  A
N59          C63   1.342   1_545  A
N59        Cu344   2.063       .  S
N60          C61   1.349       .  A
C61          C62   1.388       .  A
C61          H64   1.082       .  S
C62          C63   1.383   1_545  A
C62         C184   1.483   1_545  S
C63          H65   1.082       .  S
N66          N67   1.323       .  A
N66          C70   1.341       .  A
N66        Cu346   2.082   1_455  S
N67          C68   1.349       .  A
C68          C69   1.390       .  A
C68          H71   1.081       .  S
C69          C70   1.388       .  A
C69         C205   1.494       .  S
C70         H360   1.082   1_455  S
H72         C358   1.082       .  S
N73          N74   1.322       .  A
N73          C77   1.348       .  A
N73         Cu81   2.082       .  S
N74          C75   1.341       .  A
N74         Cu80   2.058       .  S
C75          C76   1.379       .  A
C75          H78   1.082       .  S
C76          C77   1.385       .  A
C76         C220   1.473       .  S
C77          H79   1.082       .  S
Cu80         N83   2.057       .  S
Cu81         N91   2.083       .  S
Cu82         N84   2.068       .  S
Cu82         N90   2.068       .  S
N83          N84   1.319       .  A
N83          C87   1.340       .  A
N84          C85   1.347       .  A
C85          C86   1.389       .  A
C85          H88   1.081       .  S
C86          C87   1.385       .  A
C86         C229   1.486       .  S
C87          H89   1.082       .  S
N90          N91   1.321       .  A
N90          C94   1.339       .  A
N91          C92   1.347       .  A
C92          C93   1.392       .  A
C92          H95   1.080       .  S
C93          C94   1.389       .  A
C93         C160   1.496       .  S
C94          H96   1.081       .  S
C97          C98   1.535       .  S
C97         C103   1.544       .  S
C97         C101   1.532       .  S
C97         C157   1.536       .  S
C98         H105   1.087       .  S
C98          C99   1.362       .  D
C99         C100   1.537   1_545  S
C99         C172   1.487   1_545  S
C100        C104   1.552       .  S
C100        C102   1.541       .  S
C100        H106   1.105       .  S
C101        H107   1.087       .  S
C101        C102   1.359   1_545  D
C102        C280   1.489       .  S
C103        H108   1.078       .  S
C103        C104   1.376   1_545  D
C104        C111   1.497       .  S
C109        C110   1.531       .  S
C109        C115   1.543       .  S
C109        C113   1.536       .  S
C109        C148   1.537       .  S
C110        H117   1.082       .  S
C110        C111   1.371       .  D
C111        C112   1.552       .  S
C112        C116   1.537       .  S
C112        C114   1.542       .  S
C112        H118   1.106       .  S
C113        H119   1.087       .  S
C113        C114   1.361       .  D
C114        C181   1.494       .  S
C115        H120   1.078       .  S
C115        C116   1.362       .  D
C116        C253   1.486       .  S
N121        N122   1.320       .  A
N121        C125   1.342       .  A
N121       Cu129   2.060       .  S
N122        C123   1.341       .  A
N122       Cu128   2.055       .  S
C123        C124   1.380       .  A
C123        H126   1.082       .  S
C124        C125   1.381       .  A
C124        C244   1.464       .  S
C125        H127   1.082       .  S
Cu128       N131   2.056       .  S
Cu129       N139   2.060       .  S
Cu130       N132   2.071       .  S
Cu130       N138   2.072       .  S
N131        N132   1.321       .  A
N131        C135   1.340       .  A
N132        C133   1.347       .  A
C133        C134   1.384       .  A
C133        H136   1.082       .  S
C134        C135   1.379       .  A
C134        C196   1.472       .  S
C135        H137   1.082       .  S
N138        N139   1.323       .  A
N138        C142   1.341       .  A
N139        C140   1.345       .  A
C140        C141   1.378       .  A
C140        H143   1.082       .  S
C141        C142   1.380       .  A
C141        C145   1.467       .  S
C142        H144   1.082       .  S
C145        C146   1.397       .  A
C145        C150   1.403       .  A
C146        C147   1.401       .  A
C146        H151   1.085       .  S
C147        C148   1.424       .  A
C147        C154   1.445       .  S
C148        C149   1.413       .  A
C149        C150   1.395       .  A
C149        H152   1.075       .  S
C150        C153   1.446       .  S
C153        N155   1.157       .  T
C154        N156   1.157       .  T
C157        C158   1.410       .  A
C157        C162   1.421       .  A
C158        C159   1.407       .  A
C158        H163   1.078       .  S
C159        C160   1.417       .  A
C159        C166   1.443       .  S
C160        C161   1.403       .  A
C161        C162   1.392       .  A
C161        H164   1.082       .  S
C162        C165   1.448       .  S
C165        N167   1.157       .  T
C166        N168   1.157       .  T
C169        C170   1.406   1_545  A
C169        C174   1.412       .  A
C170        C171   1.398       .  A
C170        H175   1.083       .  S
C171        C172   1.411       .  A
C171        C178   1.441       .  S
C172        C173   1.406   1_565  A
C173        C174   1.401       .  A
C173        H176   1.085       .  S
C174        C177   1.443       .  S
C177        N179   1.157       .  T
C178        N180   1.157       .  T
C181        C182   1.410       .  A
C181        C186   1.414       .  A
C182        C183   1.404       .  A
C182        H187   1.085       .  S
C183        C184   1.410       .  A
C183        C190   1.444       .  S
C184        C185   1.402       .  A
C185        C186   1.400       .  A
C185        H188   1.085       .  S
C186        C189   1.440       .  S
C189        N191   1.156       .  T
C190        N192   1.157       .  T
C193        C194   1.405       .  A
C193        C198   1.417   1_556  A
C194        C195   1.394       .  A
C194        H199   1.082       .  S
C195        C196   1.408   1_556  A
C195        C202   1.445       .  S
C196        C197   1.401       .  A
C197        C198   1.402       .  A
C197        H200   1.085       .  S
C198        C201   1.443       .  S
C201        N491   1.157       .  T
C202        N204   1.157       .  T
N203        C489   1.157   1_455  T
C205        C210   1.416       .  A
C205        C494   1.399       .  A
C206        C207   1.394       .  A
C206        C493   1.399       .  A
C206        H211   1.084       .  S
C207        C496   1.424       .  A
C207        C214   1.445       .  S
C208        C209   1.412       .  A
C208        C495   1.424   1_455  A
C209        C210   1.410       .  A
C209        H212   1.079   1_554  S
C210        C213   1.443       .  S
C213        N215   1.157       .  T
C214        N216   1.157       .  T
C217        C218   1.402       .  A
C217        C222   1.408       .  A
C218        C219   1.403       .  A
C218        H223   1.085       .  S
C219        C220   1.409       .  A
C219        C226   1.443       .  S
C220        C221   1.402       .  A
C221        C222   1.396       .  A
C221        H224   1.085       .  S
C222        C225   1.443       .  S
C225        N227   1.157       .  T
C226        N228   1.157       .  T
C229        C230   1.404       .  A
C229        C234   1.411       .  A
C230        C231   1.399       .  A
C230        H235   1.085       .  S
C231        C232   1.414       .  A
C231        C238   1.441       .  S
C232        C233   1.408       .  A
C233        C234   1.401       .  A
C233        H236   1.085       .  S
C234        C237   1.443       .  S
C237        N239   1.157       .  T
C238        N240   1.157       .  T
C241        C242   1.403       .  A
C241        C246   1.410   1_556  A
C242        C243   1.394       .  A
C242        H247   1.085       .  S
C243        C244   1.408   1_556  A
C243        C250   1.445       .  S
C244        C245   1.399       .  A
C245        C246   1.400       .  A
C245        H248   1.085       .  S
C246        C249   1.439       .  S
C249        N251   1.156       .  T
C250        N252   1.157       .  T
C253        C254   1.405       .  A
C253        C258   1.417       .  A
C254        C255   1.404       .  A
C254        H259   1.085       .  S
C255        C256   1.409       .  A
C255        C262   1.443       .  S
C256        C257   1.399       .  A
C257        C258   1.395       .  A
C257        H260   1.085       .  S
C258        C261   1.445       .  S
C261        N263   1.157       .  T
C262        N264   1.157       .  T
C265        C266   1.403       .  A
C265        C270   1.416       .  A
C266        C267   1.395       .  A
C266        H271   1.083       .  S
C267        C268   1.422       .  A
C267        C274   1.447       .  S
C268        C269   1.412       .  A
C269        C270   1.406       .  A
C269        H272   1.078       .  S
C270        C561   1.443   1_455  S
C273        C558   1.443       .  S
C273        N275   1.158       .  T
C274        N276   1.157       .  T
C277        C278   1.409       .  A
C277        C282   1.413       .  A
C278        C279   1.408       .  A
C278        H283   1.084       .  S
C279        C280   1.410       .  A
C279        C286   1.443       .  S
C280        C281   1.404       .  A
C281        C282   1.397       .  A
C281        H284   1.084   1_565  S
C282        C285   1.444       .  S
C285        N287   1.157   1_565  T
C286        N288   1.157       .  T
N289        N290   1.322       .  A
N289        C293   1.344       .  A
N289       Cu297   2.076       .  S
N290        C291   1.345       .  A
C291        C292   1.383       .  A
C291        H294   1.082       .  S
C292        C293   1.384       .  A
C292        C544   1.473       .  S
C293        H295   1.082       .  S
Cu296       N299   2.075       .  S
Cu298       N300   2.075       .  S
Cu298       N306   2.074       .  S
N299        N300   1.321       .  A
N299        C303   1.343       .  A
N300        C301   1.348       .  A
C301        C302   1.387       .  A
C301        H304   1.082       .  S
C302        C303   1.387       .  A
C302        C565   1.488       .  S
C303        H305   1.081       .  S
N306        N307   1.321       .  A
N306        C310   1.340       .  A
N307        C308   1.347       .  A
C308        C309   1.391       .  A
C309        C310   1.389       .  A
C309        C553   1.495       .  S
C310        H312   1.081       .  S
C313        C314   1.528       .  S
C313        C319   1.541       .  S
C313        C317   1.532       .  S
C313        C556   1.539       .  S
C314        H321   1.087       .  S
C314        C315   1.357       .  D
C315        C316   1.538       .  S
C315        C529   1.475       .  S
C316        C320   1.548       .  S
C316        C318   1.545       .  S
C316        H322   1.105       .  S
C317        H323   1.086       .  S
C317        C318   1.366       .  D
C318        C520   1.493       .  S
C319        H324   1.074       .  S
C319        C320   1.379       .  D
C320        C327   1.504       .  S
C325        C326   1.554       .  S
C325        C496   1.541   1_556  S
C326        H333   1.079       .  S
C326        C327   1.380       .  D
C328        C332   1.527       .  S
C328        C330   1.535       .  S
C328        H334   1.102       .  S
C329        H335   1.084       .  S
C329        C330   1.364   1_554  D
C330        C481   1.489       .  S
C331        H336   1.087       .  S
C331        C332   1.355       .  D
C332        C505   1.474       .  S
N337        N338   1.321       .  A
N337        C341   1.346       .  A
N337       Cu345   2.082       .  S
N338        C339   1.341       .  A
N338       Cu344   2.062       .  S
C339        C340   1.385       .  A
C339        H342   1.081   1_545  S
C340        C341   1.391       .  A
C340        C457   1.488       .  S
C341        H343   1.081       .  S
Cu345       N355   2.083       .  S
Cu346       N348   2.080       .  S
N347        N348   1.320       .  A
N347        C351   1.342   1_545  A
N348        C349   1.349       .  A
C349        C350   1.388       .  A
C349        H352   1.082       .  S
C350        C351   1.383   1_545  A
C350        C472   1.483   1_545  S
C351        H353   1.082       .  S
N354        N355   1.323       .  A
N354        C358   1.341       .  A
N355        C356   1.349       .  A
C356        C357   1.390       .  A
C356        H359   1.081       .  S
C357        C358   1.388       .  A
C357        C493   1.494       .  S
N361        N362   1.322       .  A
N361        C365   1.348       .  A
N361       Cu369   2.082       .  S
N362        C363   1.341       .  A
N362       Cu368   2.058       .  S
C363        C364   1.379       .  A
C363        H366   1.082       .  S
C364        C365   1.385       .  A
C364        C508   1.473       .  S
C365        H367   1.082       .  S
Cu368       N371   2.057       .  S
Cu369       N379   2.083       .  S
Cu370       N372   2.068       .  S
Cu370       N378   2.068       .  S
N371        N372   1.319       .  A
N371        C375   1.340       .  A
N372        C373   1.347       .  A
C373        C374   1.389       .  A
C373        H376   1.081       .  S
C374        C375   1.385       .  A
C374        C517   1.486       .  S
C375        H377   1.082       .  S
N378        N379   1.321       .  A
N378        C382   1.339       .  A
N379        C380   1.347       .  A
C380        C381   1.392       .  A
C380        H383   1.080       .  S
C381        C382   1.389       .  A
C381        C448   1.496       .  S
C382        H384   1.081       .  S
C385        C386   1.535       .  S
C385        C391   1.544       .  S
C385        C389   1.532       .  S
C385        C445   1.536       .  S
C386        H393   1.087       .  S
C386        C387   1.362       .  D
C387        C388   1.537   1_545  S
C387        C460   1.487   1_545  S
C388        C392   1.552       .  S
C388        C390   1.541       .  S
C388        H394   1.105       .  S
C389        H395   1.087       .  S
C389        C390   1.359   1_545  D
C390        C568   1.489       .  S
C391        H396   1.078       .  S
C391        C392   1.376   1_545  D
C392        C399   1.497       .  S
C397        C398   1.531       .  S
C397        C403   1.543       .  S
C397        C401   1.536       .  S
C397        C436   1.537       .  S
C398        H405   1.082       .  S
C398        C399   1.371       .  D
C399        C400   1.552       .  S
C400        C404   1.537       .  S
C400        C402   1.542       .  S
C400        H406   1.106       .  S
C401        H407   1.087       .  S
C401        C402   1.361       .  D
C402        C469   1.494       .  S
C403        H408   1.078       .  S
C403        C404   1.362       .  D
C404        C541   1.486       .  S
N409        N410   1.320       .  A
N409        C413   1.342       .  A
N409       Cu417   2.060       .  S
N410        C411   1.341       .  A
N410       Cu416   2.055       .  S
C411        C412   1.380       .  A
C411        H414   1.082       .  S
C412        C413   1.381       .  A
C412        C532   1.464       .  S
C413        H415   1.082       .  S
Cu416       N419   2.056       .  S
Cu417       N427   2.060       .  S
Cu418       N420   2.071       .  S
Cu418       N426   2.072       .  S
N419        N420   1.321       .  A
N419        C423   1.340       .  A
N420        C421   1.347       .  A
C421        C422   1.384       .  A
C421        H424   1.082       .  S
C422        C423   1.379       .  A
C422        C484   1.472       .  S
C423        H425   1.082       .  S
N426        N427   1.323       .  A
N426        C430   1.341       .  A
N427        C428   1.345       .  A
C428        C429   1.378       .  A
C428        H431   1.082       .  S
C429        C430   1.380       .  A
C429        C433   1.467       .  S
C430        H432   1.082       .  S
C433        C434   1.397       .  A
C433        C438   1.403       .  A
C434        C435   1.401       .  A
C434        H439   1.085       .  S
C435        C436   1.424       .  A
C435        C442   1.445       .  S
C436        C437   1.413       .  A
C437        C438   1.395       .  A
C437        H440   1.075       .  S
C438        C441   1.446       .  S
C441        N443   1.157       .  T
C442        N444   1.157       .  T
C445        C446   1.410       .  A
C445        C450   1.421       .  A
C446        C447   1.407       .  A
C446        H451   1.078       .  S
C447        C448   1.417       .  A
C447        C454   1.443       .  S
C448        C449   1.403       .  A
C449        C450   1.392       .  A
C449        H452   1.082       .  S
C450        C453   1.448       .  S
C453        N455   1.157       .  T
C454        N456   1.157       .  T
C457        C458   1.406   1_545  A
C457        C462   1.412       .  A
C458        C459   1.398       .  A
C458        H463   1.083       .  S
C459        C460   1.411       .  A
C459        C466   1.441       .  S
C460        C461   1.406   1_565  A
C461        C462   1.401       .  A
C461        H464   1.085       .  S
C462        C465   1.443       .  S
C465        N467   1.157       .  T
C466        N468   1.157       .  T
C469        C470   1.410       .  A
C469        C474   1.414       .  A
C470        C471   1.404       .  A
C470        H475   1.085       .  S
C471        C472   1.410       .  A
C471        C478   1.444       .  S
C472        C473   1.402       .  A
C473        C474   1.400       .  A
C473        H476   1.085       .  S
C474        C477   1.440       .  S
C477        N479   1.156       .  T
C478        N480   1.157       .  T
C481        C482   1.405       .  A
C481        C486   1.417   1_556  A
C482        C483   1.394       .  A
C482        H487   1.082       .  S
C483        C484   1.408   1_556  A
C483        C490   1.445       .  S
C484        C485   1.401       .  A
C485        C486   1.402       .  A
C485        H488   1.085       .  S
C486        C489   1.443       .  S
C490        N492   1.157       .  T
C493        C498   1.416       .  A
C494        C495   1.394   1_455  A
C494        H499   1.084   1_455  S
C495        C502   1.445       .  S
C496        C497   1.412       .  A
C497        C498   1.410       .  A
C497        H500   1.079   1_554  S
C498        C501   1.443       .  S
C501        N503   1.157       .  T
C502        N504   1.157       .  T
C505        C506   1.402       .  A
C505        C510   1.408       .  A
C506        C507   1.403       .  A
C506        H511   1.085       .  S
C507        C508   1.409       .  A
C507        C514   1.443       .  S
C508        C509   1.402       .  A
C509        C510   1.396       .  A
C509        H512   1.085       .  S
C510        C513   1.443       .  S
C513        N515   1.157       .  T
C514        N516   1.157       .  T
C517        C518   1.404       .  A
C517        C522   1.411       .  A
C518        C519   1.399       .  A
C518        H523   1.085       .  S
C519        C520   1.414       .  A
C519        C526   1.441       .  S
C520        C521   1.408       .  A
C521        C522   1.401       .  A
C521        H524   1.085       .  S
C522        C525   1.443       .  S
C525        N527   1.157       .  T
C526        N528   1.157       .  T
C529        C530   1.403       .  A
C529        C534   1.410   1_556  A
C530        C531   1.394       .  A
C530        H535   1.085       .  S
C531        C532   1.408   1_556  A
C531        C538   1.445       .  S
C532        C533   1.399       .  A
C533        C534   1.400       .  A
C533        H536   1.085       .  S
C534        C537   1.439       .  S
C537        N539   1.156       .  T
C538        N540   1.157       .  T
C541        C542   1.405       .  A
C541        C546   1.417       .  A
C542        C543   1.404       .  A
C542        H547   1.085       .  S
C543        C544   1.409       .  A
C543        C550   1.443       .  S
C544        C545   1.399       .  A
C545        C546   1.395       .  A
C545        H548   1.085       .  S
C546        C549   1.445       .  S
C549        N551   1.157       .  T
C550        N552   1.157       .  T
C553        C554   1.403       .  A
C553        C558   1.416       .  A
C554        C555   1.395       .  A
C554        H559   1.083       .  S
C555        C556   1.422       .  A
C555        C562   1.447       .  S
C556        C557   1.412       .  A
C557        C558   1.406       .  A
C557        H560   1.078       .  S
C561        N563   1.158       .  T
C562        N564   1.157       .  T
C565        C566   1.409       .  A
C565        C570   1.413       .  A
C566        C567   1.408       .  A
C566        H571   1.084       .  S
C567        C568   1.410       .  A
C567        C574   1.443       .  S
C568        C569   1.404       .  A
C569        C570   1.397       .  A
C569        H572   1.084   1_565  S
C570        C573   1.444       .  S
C573        N575   1.157   1_565  T
C574        N576   1.157       .  T
