geometry optimzed in LAMMPS
_audit_creation_date              2020-11-30 
_audit_creation_method            'lammps2cif' 
_symmetry_space_group_name_H-M    'P1' 
_symmetry_Int_Tables_number       1 
_symmetry_cell_setting            triclinic 
loop_ 
_symmetry_equiv_pos_as_xyz 
  x,y,z 
_cell_length_a                    65.92139342 
_cell_length_b                    66.04570903102227 
_cell_length_c                    121.47761086953568 
_cell_angle_alpha                 90.0102765509075 
_cell_angle_beta                  89.96585797986299 
_cell_angle_gamma                 90.00840730741528 
loop_ 
_atom_site_label 
_atom_site_type_symbol 
_atom_site_fract_x 
_atom_site_fract_y 
_atom_site_fract_z 
_atom_site_charge 
N1          N  0.71902423  0.05095723  0.31101846    -0.25800
N2          N  0.70792611  0.05216937  0.30197698    -0.33700
C3          C  0.69056507  0.06195240  0.30427115     0.02500
C4          C  0.69079743  0.06711560  0.31525994     0.08500
C5          C  0.70897882  0.05996255  0.31934530    -0.04600
H6          H  0.67861568  0.06492166  0.29838443     0.09200
H7          H  0.71443471  0.06104350  0.32772393     0.10400
Cu8        Cu  0.71661341  0.04028035  0.28695279     0.44200
Cu9        Cu  0.74705814  0.03670103  0.31144344     0.42000
Cu10       Cu  0.76441664  0.01391129  0.28560292     0.43900
N11         N  0.72806715  0.02767221  0.27266346    -0.33200
N12         N  0.74557473  0.01795132  0.27207960    -0.27500
C13         C  0.74860744  0.01186924  0.26161846    -0.03600
C14         C  0.73220175  0.01813637  0.25542885     0.08600
C15         C  0.71948633  0.02805970  0.26263764     0.02400
H16         H  0.76176587  0.00361271  0.25875644     0.10100
H17         H  0.70509066  0.03511387  0.26074874     0.09200
N18         N  0.78046261  0.01276287  0.30030910    -0.34700
N19         N  0.77418745  0.02111000  0.30962049    -0.26900
C20         C  0.78800672  0.01756214  0.31752683    -0.02100
C21         C  0.80362287  0.00650029  0.31296275     0.06500
C22         C  0.79845560  0.00367668  0.30206553     0.04600
H23         H  0.78668216  0.02255960  0.32598098     0.09700
H24         H  0.80703964  0.99556872  0.29588133     0.08500
N25         N  0.01819418  0.95441647  0.38462131    -0.25800
N26         N  0.02318897  0.94372394  0.39342038    -0.33700
C27         C  0.04267641  0.94740477  0.39596264     0.02500
C28         C  0.05023733  0.96099033  0.38839551     0.08500
C29         C  0.03441604  0.96522615  0.38132779    -0.04600
H30         H  0.05053614  0.94111561  0.40299338     0.09200
H31         H  0.03448707  0.97574779  0.37450082     0.10400
Cu32       Cu  0.00309958  0.92582984  0.40217538     0.44200
Cu33       Cu  0.98923718  0.95463777  0.37796092     0.42000
Cu34       Cu  0.95098665  0.92678784  0.39352178     0.43900
N35         N  0.98013007  0.91092821  0.41049535    -0.33200
N36         N  0.96089249  0.91144170  0.40743032    -0.27500
C37         C  0.94968749  0.90116233  0.41482864    -0.03600
C38         C  0.96258433  0.89385940  0.42285288     0.08600
C39         C  0.98171848  0.90032596  0.41990338     0.02400
H40         H  0.93336903  0.89953043  0.41450546     0.10100
H41         H  0.99568394  0.89799495  0.42440234     0.09200
N42         N  0.94508699  0.94263570  0.37911475    -0.34700
N43         N  0.95897074  0.95265020  0.37342204    -0.26900
C44         C  0.95012055  0.96117360  0.36458128    -0.02100
C45         C  0.92979204  0.95622957  0.36476552     0.06500
C46         C  0.92704849  0.94453077  0.37404876     0.04600
H47         H  0.95789412  0.97039009  0.35854244     0.09700
H48         H  0.91299440  0.93795811  0.37695207     0.08500
N49         N  0.50637559  0.64163777  0.89930389    -0.25800
N50         N  0.49907526  0.65329576  0.90722765    -0.33700
C51         C  0.47973877  0.64796117  0.90927250     0.02500
C52         C  0.47469731  0.63225735  0.90229582     0.08500
C53         C  0.49187089  0.62854002  0.89610320    -0.04600
H54         H  0.47032084  0.65454944  0.91563208     0.09200
H55         H  0.49387296  0.61687794  0.88994006     0.10400
Cu56       Cu  0.51631745  0.67454199  0.91565177     0.44200
Cu57       Cu  0.53601006  0.64364406  0.89359763     0.42000
Cu58       Cu  0.56921116  0.67897528  0.90794384     0.43900
N59         N  0.53721881  0.69188890  0.92427656    -0.33200
N60         N  0.55661885  0.69334476  0.92158421    -0.27500
C61         C  0.56621672  0.70463895  0.92921371    -0.03600
C62         C  0.55213686  0.71051345  0.93701185     0.08600
C63         C  0.53395582  0.70220122  0.93366543     0.02400
H64         H  0.58228816  0.70795547  0.92919132     0.10100
H65         H  0.51952302  0.70311846  0.93788116     0.09200
N66         N  0.57785863  0.66237258  0.89414488    -0.34700
N67         N  0.56580353  0.64942694  0.88900325    -0.26900
C68         C  0.57591161  0.64119788  0.88047542    -0.02100
C69         C  0.59516369  0.64937648  0.88025715     0.06500
C70         C  0.59596433  0.66271237  0.88900417     0.04600
H71         H  0.56967010  0.63011578  0.87485708     0.09700
H72         H  0.60873732  0.67194239  0.89147464     0.08500
N73         N  0.80790609  0.57209981  0.81866754    -0.25800
N74         N  0.81685719  0.57049568  0.80896581    -0.33700
C75         C  0.83463892  0.56080695  0.81017110     0.02500
C76         C  0.83697857  0.55610850  0.82115060     0.08500
C77         C  0.81981869  0.56342917  0.82635393    -0.04600
H78         H  0.84513864  0.55758656  0.80354737     0.09200
H79         H  0.81628506  0.56261457  0.83504205     0.10400
Cu80       Cu  0.80479908  0.58210977  0.79459576     0.44200
Cu81       Cu  0.77997065  0.58628303  0.82061884     0.42000
Cu82       Cu  0.75741968  0.60951506  0.79588294     0.43900
N83         N  0.79155487  0.59594328  0.78114417    -0.33200
N84         N  0.77433855  0.60621512  0.78148928    -0.27500
C85         C  0.77031989  0.61343617  0.77133524    -0.03600
C86         C  0.78578534  0.60732148  0.76439085     0.08600
C87         C  0.79894006  0.59631645  0.77084039     0.02400
H88         H  0.75718600  0.62242850  0.76919617     0.10100
H89         H  0.81292922  0.58917148  0.76826562     0.09200
N90         N  0.74372297  0.60904327  0.81136255    -0.34700
N91         N  0.75189205  0.60063766  0.82021680    -0.26900
C92         C  0.73895643  0.60256964  0.82872398    -0.02100
C93         C  0.72191718  0.61261291  0.82505591     0.06500
C94         C  0.72535698  0.61653453  0.81404447     0.04600
H95         H  0.74171933  0.59692117  0.83694867     0.09700
H96         H  0.71522741  0.62409495  0.80837246     0.08500
N97         N  0.90684174  0.56367602  0.64122373    -0.25800
N98         N  0.89704798  0.55736788  0.65008867    -0.33700
C99         C  0.90280645  0.53834257  0.65243790     0.02500
C100        C  0.91683835  0.53241977  0.64467423     0.08500
C101        C  0.91915589  0.54875432  0.63768174    -0.04600
H102        H  0.89746853  0.52965847  0.65941629     0.09200
H103        H  0.92924817  0.54986647  0.63067972     0.10400
Cu104      Cu  0.87717510  0.57511262  0.65901890     0.44200
Cu105      Cu  0.90323037  0.59257111  0.63473479     0.42000
Cu106      Cu  0.86948007  0.62646705  0.65014888     0.43900
N107        N  0.85962041  0.59567475  0.66758824    -0.33200
N108        N  0.85681202  0.61464706  0.66446405    -0.27500
C109        C  0.84555803  0.62420997  0.67213504    -0.03600
C110        C  0.84116157  0.61048883  0.68039010     0.08600
C111        C  0.85028475  0.59261515  0.67728098     0.02400
H112        H  0.84131985  0.64002377  0.67183541     0.10100
H113        H  0.85058425  0.57855468  0.68184778     0.09200
N114        N  0.88435703  0.63434989  0.63565441    -0.34700
N115        N  0.89657663  0.62213828  0.63009648    -0.26900
C116        C  0.90365711  0.63200467  0.62118734    -0.02100
C117        C  0.89547388  0.65123387  0.62117026     0.06500
C118        C  0.88336251  0.65228098  0.63041898     0.04600
H119        H  0.91400509  0.62563845  0.61519790     0.09700
H120        H  0.87451379  0.66511885  0.63317062     0.08500
N121        N  0.96975113  0.86561818  0.56302181    -0.25800
N122        N  0.97067666  0.87606890  0.55375006    -0.33700
C123        C  0.97988535  0.89387503  0.55569326     0.02500
C124        C  0.98493830  0.89462202  0.56669946     0.08500
C125        C  0.97837133  0.87652261  0.57114234    -0.04600
H126        H  0.98283872  0.90531729  0.54952160     0.09200
H127        H  0.97984907  0.87157270  0.57959433     0.10400
Cu128      Cu  0.95988797  0.86543100  0.53882281     0.44200
Cu129      Cu  0.95690290  0.83696959  0.56395139     0.42000
Cu130      Cu  0.93781540  0.81528883  0.53819865     0.43900
N131        N  0.94958250  0.85157819  0.52458991    -0.30800
N132        N  0.94163126  0.83319334  0.52425635    -0.27500
C133        C  0.93733818  0.82849691  0.51371299    -0.03600
C134        C  0.94285971  0.84474686  0.50720481     0.08600
C135        C  0.95055418  0.85907182  0.51431754     0.02400
H136        H  0.93103872  0.81422049  0.51099558     0.10100
H137        H  0.95681028  0.87369872  0.51217893     0.09200
N138        N  0.93598301  0.80097304  0.55343167    -0.34700
N139        N  0.94292530  0.80887824  0.56271477    -0.26900
C140        C  0.93933979  0.79588597  0.57101624    -0.02100
C141        C  0.92971159  0.77909363  0.56675383     0.06500
C142        C  0.92779908  0.78271292  0.55560890     0.04600
H143        H  0.94346234  0.79849997  0.57951983     0.09700
H144        H  0.92100048  0.77285035  0.54952959     0.08500
N145        N  0.49712911  0.76949220  0.07050754    -0.25800
N146        N  0.49900994  0.75757043  0.06181823    -0.33700
C147        C  0.48918975  0.74008651  0.06373567     0.02500
C148        C  0.48075228  0.74107944  0.07410805     0.08500
C149        C  0.48601992  0.75987076  0.07821833    -0.04600
H150        H  0.48830560  0.72758233  0.05799840     0.09200
H151        H  0.48216996  0.76606231  0.08619795     0.10400
Cu152      Cu  0.51480837  0.76550965  0.04772208     0.44200
Cu153      Cu  0.51019851  0.79807881  0.07128615     0.42000
Cu154      Cu  0.53874712  0.81450034  0.04684871     0.43900
N155        N  0.53067290  0.77621055  0.03419948    -0.33200
N156        N  0.53942635  0.79421405  0.03375377    -0.27500
C157        C  0.54818945  0.79649301  0.02379655    -0.03600
C158        C  0.54471865  0.77905045  0.01779256     0.08600
C159        C  0.53360510  0.76655529  0.02459189     0.02400
H160        H  0.55636771  0.80983074  0.02114158     0.10100
H161        H  0.52793896  0.75158401  0.02268745     0.09200
N162        N  0.53609276  0.83126557  0.06127484    -0.34700
N163        N  0.52575251  0.82534174  0.07005639    -0.26900
C164        C  0.52750428  0.83948915  0.07796814    -0.02100
C165        C  0.53946981  0.85494401  0.07396065     0.06500
C166        C  0.54468902  0.84934204  0.06339173     0.04600
H167        H  0.52075189  0.83845288  0.08607017     0.09700
H168        H  0.55418298  0.85764496  0.05769530     0.08500
N169        N  0.58629286  0.07338603  0.14354095    -0.25800
N170        N  0.59905509  0.07942830  0.15127082    -0.33700
C171        C  0.59523475  0.09890160  0.15373659     0.02500
C172        C  0.57938096  0.10534996  0.14722566     0.08500
C173        C  0.57397578  0.08888293  0.14087287    -0.04600
H174        H  0.60320324  0.10758123  0.15993115     0.09200
H175        H  0.56186172  0.08810384  0.13488065     0.10400
Cu176      Cu  0.62061537  0.06081151  0.15840724     0.44200
Cu177      Cu  0.58616716  0.04422498  0.13721293     0.42000
Cu178      Cu  0.62396645  0.00948709  0.14856737     0.43900
N179        N  0.64034870  0.03954378  0.16487910    -0.33200
N180        N  0.64164885  0.02066806  0.16131266    -0.27500
C181        C  0.65514357  0.01056677  0.16756126    -0.03600
C182        C  0.66263327  0.02382220  0.17535366     0.08600
C183        C  0.65295038  0.04199052  0.17347126     0.02400
H184        H  0.65876630  0.99467158  0.16668294     0.10100
H185        H  0.65449612  0.05581315  0.17817820     0.09200
N186        N  0.60360993  0.00194994  0.13620988    -0.34700
N187        N  0.58981298  0.01445251  0.13215124    -0.26900
C188        C  0.57902552  0.00469735  0.12438587    -0.02100
C189        C  0.58645144  0.98523741  0.12356360     0.06500
C190        C  0.60196716  0.98393140  0.13113175     0.04600
H191        H  0.56672762  0.01130393  0.11971076     0.09700
H192        H  0.61133317  0.97086349  0.13286334     0.08500
N193        N  0.30687081  0.53374526  0.92371417    -0.25800
N194        N  0.31572964  0.53570178  0.93342030    -0.33700
C195        C  0.33351281  0.54539033  0.93212837     0.02500
C196        C  0.33591606  0.54970530  0.92109558     0.08500
C197        C  0.31881731  0.54215726  0.91595642    -0.04600
H198        H  0.34394173  0.54892305  0.93873147     0.09200
H199        H  0.31534357  0.54263807  0.90725581     0.10400
Cu200      Cu  0.30330455  0.52492176  0.94795490     0.44200
Cu201      Cu  0.27902023  0.51948617  0.92172566     0.42000
Cu202      Cu  0.25471527  0.49942840  0.94662645     0.43900
N203        N  0.28843634  0.51330651  0.96159885    -0.33200
N204        N  0.27067622  0.50399193  0.96122052    -0.27500
C205        C  0.26526335  0.49865943  0.97152768    -0.03600
C206        C  0.28038387  0.50494967  0.97862916     0.08600
C207        C  0.29479512  0.51414703  0.97210087     0.02400
H208        H  0.25133560  0.49094436  0.97367558     0.10100
H209        H  0.30881142  0.52109998  0.97477930     0.09200
N210        N  0.24232292  0.49745015  0.93087924    -0.34700
N211        N  0.25118377  0.50472459  0.92192444    -0.26900
C212        C  0.23918761  0.50119199  0.91317796    -0.02100
C213        C  0.22204259  0.49125127  0.91679488     0.06500
C214        C  0.22442434  0.48909879  0.92803051     0.04600
H215        H  0.24265523  0.50568227  0.90481946     0.09700
H216        H  0.21390530  0.48213679  0.93372800     0.08500
N217        N  0.01016252  0.46660349  0.83994217    -0.25800
N218        N  0.00378561  0.45712996  0.83099204    -0.33700
C219        C  0.98486756  0.46333525  0.82860475     0.02500
C220        C  0.97909282  0.47732750  0.83642557     0.08500
C221        C  0.99540565  0.47912363  0.84349763    -0.04600
H222        H  0.97606962  0.45815896  0.82163219     0.09200
H223        H  0.99656053  0.48889368  0.85062116     0.10400
Cu224      Cu  0.02115627  0.43658529  0.82219812     0.44200
Cu225      Cu  0.03887387  0.46219671  0.84663516     0.42000
Cu226      Cu  0.07183793  0.42677518  0.83190893     0.43900
N227        N  0.04131934  0.41755680  0.81418763    -0.33200
N228        N  0.05995538  0.41391811  0.81769564    -0.27500
C229        C  0.06944793  0.40192684  0.81034771    -0.03600
C230        C  0.05605928  0.39786889  0.80188863     0.08600
C231        C  0.03843254  0.40800364  0.80453930     0.02400
H232        H  0.08509350  0.39711248  0.81094954     0.10100
H233        H  0.02474967  0.40894586  0.79965172     0.09200
N234        N  0.08035586  0.44249555  0.84599085    -0.34700
N235        N  0.06844760  0.45533402  0.85132096    -0.26900
C236        C  0.07868344  0.46300532  0.85995614    -0.02100
C237        C  0.09784054  0.45457594  0.86002693     0.06500
C238        C  0.09845813  0.44168225  0.85109557     0.04600
H239        H  0.07263111  0.47395213  0.86571488     0.09700
H240        H  0.11111964  0.43244772  0.84846192     0.08500
N241        N  0.39083763  0.57208005  0.10032869    -0.25800
N242        N  0.37903485  0.57775823  0.09208057    -0.33700
C243        C  0.38362022  0.59690859  0.08925108     0.02500
C244        C  0.39900302  0.60356490  0.09603656     0.08500
C245        C  0.40330220  0.58751816  0.10295280    -0.04600
H246        H  0.37668728  0.60512514  0.08252807     0.09200
H247        H  0.41488626  0.58692768  0.10925165     0.10400
Cu248      Cu  0.35855107  0.55873210  0.08429671     0.44200
Cu249      Cu  0.38986334  0.54323645  0.10724299     0.42000
Cu250      Cu  0.35691249  0.50679174  0.09349726     0.43900
N251        N  0.34221930  0.53626830  0.07632811    -0.33200
N252        N  0.34183749  0.51714152  0.07955300    -0.27500
C253        C  0.33124939  0.50620603  0.07216181    -0.03600
C254        C  0.32466258  0.51914728  0.06397654     0.08600
C255        C  0.33189293  0.53803082  0.06682956     0.02400
H256        H  0.32907584  0.48998542  0.07254995     0.10100
H257        H  0.33044616  0.55188593  0.06214451     0.09200
N258        N  0.37370953  0.50034164  0.10755853    -0.34700
N259        N  0.38571480  0.51353084  0.11255265    -0.26900
C260        C  0.39471862  0.50437474  0.12117180    -0.02100
C261        C  0.38800832  0.48457775  0.12159051     0.06500
C262        C  0.37476714  0.48248266  0.11286748     0.04600
H263        H  0.40561929  0.51150462  0.12658459     0.09700
H264        H  0.36679395  0.46889138  0.11041440     0.08500
N265        N  0.48967230  0.27378576  0.17479405    -0.25800
N266        N  0.48939246  0.26223661  0.18368351    -0.33700
C267        C  0.49921458  0.24484747  0.18154130     0.02500
C268        C  0.50597635  0.24554512  0.17080907     0.08500
C269        C  0.49970665  0.26402113  0.16672084    -0.04600
H270        H  0.50103925  0.23252932  0.18732969     0.09200
H271        H  0.50192609  0.26979411  0.15847210     0.10400
Cu272      Cu  0.47537604  0.27044460  0.19824880     0.44200
Cu273      Cu  0.47545002  0.30179376  0.17412006     0.42000
Cu274      Cu  0.44857916  0.31812624  0.19904811     0.43900
N275        N  0.46173421  0.28184031  0.21227593    -0.33200
N276        N  0.45196970  0.29932160  0.21271321    -0.27500
C277        C  0.44582065  0.30255445  0.22315943    -0.03600
C278        C  0.45204741  0.28628769  0.22947820     0.08600
C279        C  0.46206352  0.27349021  0.22235859     0.02400
H280        H  0.43782359  0.31589806  0.22596222     0.10100
H281        H  0.46946902  0.25935679  0.22438776     0.09200
N282        N  0.44855419  0.33404957  0.18421628    -0.34700
N283        N  0.45846743  0.32819629  0.17527738    -0.26900
C284        C  0.45526283  0.34174248  0.16718818    -0.02100
C285        C  0.44278031  0.35676748  0.17122709     0.06500
C286        C  0.43877461  0.35149706  0.18201501     0.04600
H287        H  0.46142886  0.34060583  0.15895373     0.09700
H288        H  0.42939774  0.35966235  0.18782579     0.08500
N289        N  0.01764121  0.36557881  0.66380146    -0.25800
N290        N  0.01949056  0.37631145  0.67293753    -0.33700
C291        C  0.00983248  0.39406923  0.67169392     0.02500
C292        C  0.00153045  0.39450319  0.66129501     0.08500
C293        C  0.00669503  0.37627708  0.65646292    -0.04600
H294        H  0.00875171  0.40567569  0.67795582     0.09200
H295        H  0.00269228  0.37109952  0.64829655     0.10400
Cu296      Cu  0.03424459  0.36616871  0.68688450     0.44200
Cu297      Cu  0.02993291  0.33679306  0.66207902     0.42000
Cu298      Cu  0.05563835  0.31612289  0.68647329     0.43900
N299        N  0.04768848  0.35286418  0.70043477    -0.33200
N300        N  0.05548430  0.33441649  0.70041497    -0.27500
C301        C  0.06226473  0.33008496  0.71061366    -0.03600
C302        C  0.05850325  0.34665732  0.71725775     0.08600
C303        C  0.04927134  0.36077871  0.71058651     0.02400
H304        H  0.06911014  0.31587596  0.71302263     0.10100
H305        H  0.04377513  0.37558556  0.71296155     0.09200
N306        N  0.05314360  0.30111714  0.67147042    -0.34700
N307        N  0.04382206  0.30857530  0.66270544    -0.26900
C308        C  0.04498772  0.29504248  0.65444973    -0.02100
C309        C  0.05548316  0.27836834  0.65821347     0.06500
C310        C  0.06047768  0.28263897  0.66899618     0.04600
H311        H  0.03871873  0.29724787  0.64630717     0.09700
H312        H  0.06885000  0.27309038  0.67462606     0.08500
N313        N  0.07977305  0.06272622  0.58515321    -0.25800
N314        N  0.09000262  0.05500495  0.57677639    -0.33700
C315        C  0.08407346  0.03571847  0.57522786     0.02500
C316        C  0.06950327  0.03120968  0.58301926     0.08500
C317        C  0.06706200  0.04859357  0.58916739    -0.04600
H318        H  0.08978374  0.02582847  0.56883481     0.09200
H319        H  0.05673138  0.05089475  0.59597908     0.10400
Cu320      Cu  0.11127976  0.07128082  0.56778725     0.44200
Cu321      Cu  0.08365166  0.09207764  0.59072515     0.42000
Cu322      Cu  0.12263825  0.12222373  0.57750572     0.43900
N323        N  0.13164546  0.09072796  0.56013626    -0.33200
N324        N  0.13592159  0.10919512  0.56368286    -0.27500
C325        C  0.14924097  0.11784707  0.55670665    -0.03600
C326        C  0.15346586  0.10413887  0.54843754     0.08600
C327        C  0.14210685  0.08715715  0.55082499     0.02400
H328        H  0.15507797  0.13308839  0.55749572     0.10100
H329        H  0.14124190  0.07333457  0.54606663     0.09200
N330        N  0.10563388  0.13212455  0.59089124    -0.34700
N331        N  0.09121073  0.12115485  0.59556838    -0.26900
C332        C  0.08281885  0.13182346  0.60382726    -0.02100
C333        C  0.09244652  0.15031950  0.60435987     0.06500
C334        C  0.10680659  0.15010867  0.59607782     0.04600
H335        H  0.07063195  0.12647486  0.60904198     0.09700
H336        H  0.11722452  0.16213534  0.59392504     0.08500
N337        N  0.52111624  0.15099236  0.34412725    -0.25800
N338        N  0.52710815  0.16412899  0.33656954    -0.33700
C339        C  0.54677942  0.16081975  0.33424728     0.02500
C340        C  0.55341014  0.14492943  0.34066810     0.08500
C341        C  0.53683619  0.13896206  0.34680790    -0.04600
H342        H  0.55534988  0.16885367  0.32802793     0.09200
H343        H  0.53602152  0.12636661  0.35248703     0.10400
Cu344      Cu  0.50800137  0.18477713  0.32896678     0.44200
Cu345      Cu  0.49152040  0.14904886  0.34987152     0.42000
Cu346      Cu  0.45533706  0.18304035  0.33702407     0.43900
N347        N  0.48569793  0.20258829  0.32181186    -0.33200
N348        N  0.46637327  0.20191001  0.32472813    -0.27500
C349        C  0.45566923  0.21436577  0.31815830    -0.03600
C350        C  0.46894181  0.22327612  0.31082073     0.08600
C351        C  0.48781171  0.21547864  0.31331027     0.02400
H352        H  0.43937896  0.21626256  0.31847864     0.10100
H353        H  0.50191445  0.21840743  0.30903684     0.09200
N354        N  0.44782474  0.16259125  0.34935689    -0.34700
N355        N  0.46099808  0.15017200  0.35404048    -0.26900
C356        C  0.45133593  0.13901499  0.36169381    -0.02100
C357        C  0.43120432  0.14473831  0.36178751     0.06500
C358        C  0.42943756  0.15966779  0.35390406     0.04600
H359        H  0.45846822  0.12765974  0.36681331     0.09700
H360        H  0.41584211  0.16784934  0.35164903     0.08500
N361        N  0.21855150  0.05093822  0.41577290    -0.25800
N362        N  0.20693341  0.05134345  0.42464041    -0.33700
C363        C  0.18950313  0.04156562  0.42250538     0.02500
C364        C  0.19027504  0.03472836  0.41179390     0.08500
C365        C  0.20882342  0.04087069  0.40771423    -0.04600
H366        H  0.17712065  0.03981658  0.42828020     0.09200
H367        H  0.21471869  0.03844952  0.39950402     0.10400
Cu368      Cu  0.21507814  0.06582112  0.43904831     0.44200
Cu369      Cu  0.24670037  0.06475970  0.41521377     0.42000
Cu370      Cu  0.26278588  0.09298980  0.43976575     0.43900
N371        N  0.22518971  0.08192734  0.45255372    -0.33200
N372        N  0.24250853  0.09203084  0.45293924    -0.27500
C373        C  0.24419703  0.10085291  0.46291314    -0.03600
C374        C  0.22710486  0.09597988  0.46896662     0.08600
C375        C  0.21542900  0.08400681  0.46219395     0.02400
H376        H  0.25688790  0.11004251  0.46554137     0.10100
H377        H  0.20088230  0.07728113  0.46410997     0.09200
N378        N  0.27979045  0.09056270  0.42533825    -0.34700
N379        N  0.27388998  0.08025424  0.41655088    -0.26900
C380        C  0.28813444  0.08181436  0.40867425    -0.02100
C381        C  0.30369027  0.09361162  0.41268672     0.06500
C382        C  0.29801321  0.09896908  0.42324076     0.04600
H383        H  0.28709366  0.07503226  0.40058428     0.09700
H384        H  0.30637517  0.10840065  0.42893542     0.08500
C385        C  0.35302444  0.11080145  0.39463518     0.18500
C386        C  0.35127569  0.11025141  0.38314046    -0.10600
C387        C  0.36741871  0.11665370  0.37651633    -0.11500
C388        C  0.38540673  0.12363565  0.38134836     0.20000
C389        C  0.38721807  0.12403841  0.39284306    -0.13500
C390        C  0.37106666  0.11763449  0.39947076    -0.11800
C391        C  0.40182241  0.13071385  0.37451593     0.01000
C392        C  0.41534092  0.13695645  0.36873594    -0.31800
C393        C  0.33617505  0.10467721  0.40142431     0.02400
C394        C  0.32162336  0.09967187  0.40680372    -0.33500
H395        H  0.33739632  0.10501442  0.37930632     0.13400
H396        H  0.36582806  0.11629236  0.36764227     0.13300
H397        H  0.40104084  0.12942560  0.39667388     0.13100
H398        H  0.37259010  0.11814424  0.40834572     0.12100
C399        C  0.18755279  0.10912326  0.52051781     0.18500
C400        C  0.20362078  0.09556257  0.51887373    -0.10600
C401        C  0.21350605  0.09473415  0.50868703    -0.11500
C402        C  0.20739898  0.10747430  0.50008208     0.20000
C403        C  0.19163523  0.12137042  0.50180096    -0.13500
C404        C  0.18174300  0.12219973  0.51199525    -0.11800
C405        C  0.21616583  0.10511830  0.48928187     0.01000
C406        C  0.22212213  0.10172006  0.48006764    -0.31800
C407        C  0.17624084  0.10865931  0.53067697     0.02400
C408        C  0.16615353  0.10713513  0.53893227    -0.33500
H409        H  0.20817288  0.08529332  0.52537260     0.13400
H410        H  0.22554844  0.08381037  0.50743455     0.13300
H411        H  0.18665488  0.13117894  0.49518548     0.13100
H412        H  0.16926357  0.13266375  0.51314098     0.12100
C413        C  0.06985583  0.22896388  0.63956212     0.18500
C414        C  0.05936762  0.21057421  0.64048268    -0.10600
C415        C  0.06415918  0.19440484  0.63349038    -0.11500
C416        C  0.07945182  0.19656562  0.62554926     0.20000
C417        C  0.08998651  0.21491597  0.62467629    -0.13500
C418        C  0.08520217  0.23106243  0.63165923    -0.11800
C419        C  0.08418809  0.18011425  0.61819427     0.01000
C420        C  0.08810294  0.16653186  0.61190035    -0.31800
C421        C  0.06468887  0.24584218  0.64653969     0.02400
C422        C  0.06048601  0.26046228  0.65204486    -0.33500
H423        H  0.04744111  0.20878487  0.64654509     0.13400
H424        H  0.05589070  0.18029237  0.63423252     0.13300
H425        H  0.10181528  0.21677443  0.61856317     0.13100
H426        H  0.09338246  0.24521471  0.63085382     0.12100
C427        C  0.45614508  0.25598613  0.28320197     0.18500
C428        C  0.43960630  0.25017091  0.27667937    -0.10600
C429        C  0.43701830  0.25851285  0.26618167    -0.11500
C430        C  0.45094321  0.27273682  0.26214875     0.20000
C431        C  0.46712519  0.27902017  0.26880907    -0.13500
C432        C  0.46971685  0.27067319  0.27930778    -0.11800
C433        C  0.44971356  0.27944651  0.25087026     0.01000
C434        C  0.44999855  0.28348493  0.24117746    -0.31800
C435        C  0.46003582  0.24575751  0.29347170     0.02400
C436        C  0.46387745  0.23602593  0.30161884    -0.33500
H437        H  0.42907722  0.23874683  0.27956877     0.13400
H438        H  0.42454195  0.25340800  0.26108563     0.13300
H439        H  0.47808551  0.28988133  0.26575587     0.13100
H440        H  0.48262782  0.27520951  0.28424147     0.12100
C441        C  0.40750120  0.43833050  0.14131741     0.18500
C442        C  0.41197758  0.41985916  0.13617563    -0.10600
C443        C  0.41903868  0.40345462  0.14237995    -0.11500
C444        C  0.42167786  0.40538908  0.15377962     0.20000
C445        C  0.41718629  0.42385352  0.15893563    -0.13500
C446        C  0.41011854  0.44027813  0.15272367    -0.11800
C447        C  0.42902111  0.38844686  0.16014196     0.01000
C448        C  0.43523805  0.37409673  0.16530309    -0.31800
C449        C  0.40037345  0.45521348  0.13483376     0.02400
C450        C  0.39461685  0.46887924  0.12900625    -0.33500
H451        H  0.41004076  0.41815032  0.12736799     0.13400
H452        H  0.42245558  0.38928035  0.13828899     0.13300
H453        H  0.41916445  0.42555483  0.16774019     0.13100
H454        H  0.40673478  0.45447024  0.15680221     0.12100
C455        C  0.06571103  0.35856691  0.74988234     0.18500
C456        C  0.07108553  0.37855676  0.75241057    -0.10600
C457        C  0.07064857  0.38530242  0.76331603    -0.11500
C458        C  0.06482948  0.37211201  0.77177757     0.20000
C459        C  0.05988027  0.35197232  0.76929634    -0.13500
C460        C  0.06031736  0.34521064  0.75836452    -0.11800
C461        C  0.06278820  0.37971593  0.78284475     0.01000
C462        C  0.06017921  0.38737457  0.79175414    -0.31800
C463        C  0.06445545  0.35235236  0.73852969     0.02400
C464        C  0.06232788  0.34880196  0.72885419    -0.33500
H465        H  0.07515749  0.38905870  0.74592310     0.13400
H466        H  0.07440354  0.40092655  0.76511976     0.13300
H467        H  0.05524993  0.34166030  0.77576137     0.13100
H468        H  0.05600562  0.32975601  0.75650494     0.12100
C469        C  0.29959728  0.50670800  0.03402678     0.18500
C470        C  0.28333971  0.51813122  0.02993228    -0.10600
C471        C  0.27745824  0.51618548  0.01890264    -0.11500
C472        C  0.28780001  0.50280310  0.01191295     0.20000
C473        C  0.30366878  0.49097222  0.01609785    -0.13500
C474        C  0.30954310  0.49291476  0.02711547    -0.11800
C475        C  0.28330275  0.50236806  0.00029250     0.01000
C476        C  0.28110306  0.50298968  0.99042865    -0.31800
C477        C  0.30707524  0.51016783  0.04502610     0.02400
C478        C  0.31455223  0.51384406  0.05387660    -0.33500
H479        H  0.27560206  0.52893398  0.03517074     0.13400
H480        H  0.26525881  0.52551954  0.01575358     0.13300
H481        H  0.31187581  0.48067545  0.01076840     0.13100
H482        H  0.32220247  0.48408277  0.03015825     0.12100
C483        C  0.17479307  0.47574598  0.89672851     0.18500
C484        C  0.16729124  0.45593406  0.89594150    -0.10600
C485        C  0.15165581  0.45142176  0.88852950    -0.11500
C486        C  0.14345021  0.46669366  0.88186368     0.20000
C487        C  0.15094305  0.48649396  0.88266801    -0.13500
C488        C  0.16655917  0.49100072  0.89007137    -0.11800
C489        C  0.12738445  0.46211500  0.87419807     0.01000
C490        C  0.11391744  0.45858075  0.86774273    -0.31800
C491        C  0.19110969  0.48046216  0.90421365     0.02400
C492        C  0.20503970  0.48504200  0.91016795    -0.33500
H493        H  0.17355402  0.44399453  0.90102259     0.13400
H494        H  0.14599819  0.43605370  0.88798407     0.13300
H495        H  0.14473920  0.49843297  0.87756387     0.13100
H496        H  0.17225178  0.50636093  0.89058224     0.12100
C497        C  0.53383399  0.19700258  0.15675368     0.18500
C498        C  0.52202957  0.17952610  0.15544053    -0.10600
C499        C  0.53116153  0.16124830  0.15241691    -0.11500
C500        C  0.55215080  0.16034830  0.15068940     0.20000
C501        C  0.56390690  0.17793074  0.15173826    -0.13500
C502        C  0.55476401  0.19623069  0.15476800    -0.11800
C503        C  0.56173333  0.14115024  0.14859039     0.01000
C504        C  0.56973023  0.12483617  0.14759553    -0.31800
C505        C  0.52460676  0.21526228  0.16085619     0.02400
C506        C  0.51636608  0.22963960  0.16503357    -0.33500
H507        H  0.50585480  0.17991939  0.15701669     0.13400
H508        H  0.52194334  0.14773071  0.15169247     0.13300
H509        H  0.58017111  0.17738076  0.15048519     0.13100
H510        H  0.56405796  0.20962019  0.15582232     0.12100
C511        C  0.44862503  0.69363303  0.08664690     0.18500
C512        C  0.42818801  0.69115799  0.08376788    -0.10600
C513        C  0.41798613  0.67322833  0.08644233    -0.11500
C514        C  0.42815730  0.65765459  0.09200697     0.20000
C515        C  0.44849394  0.66027227  0.09505609    -0.13500
C516        C  0.45869843  0.67820708  0.09238174    -0.11800
C517        C  0.41799201  0.63869955  0.09412146     0.01000
C518        C  0.40942309  0.62268625  0.09532469    -0.31800
C519        C  0.45957893  0.71137747  0.08310005     0.02400
C520        C  0.46908382  0.72545279  0.07940855    -0.33500
H521        H  0.42026787  0.70290495  0.07926856     0.13400
H522        H  0.40229309  0.67136281  0.08399782     0.13300
H523        H  0.45655278  0.64832252  0.09931740     0.13100
H524        H  0.47453281  0.67987555  0.09458774     0.12100
C525        C  0.55646876  0.90525763  0.09115700     0.18500
C526        C  0.57596200  0.91347783  0.09005167    -0.10600
C527        C  0.58166463  0.93026290  0.09635859    -0.11500
C528        C  0.56789806  0.93889544  0.10379513     0.20000
C529        C  0.54837028  0.93074913  0.10485415    -0.13500
C530        C  0.54266961  0.91396794  0.09854845    -0.11800
C531        C  0.57399040  0.95574511  0.11053739     0.01000
C532        C  0.57945614  0.96944203  0.11638482    -0.31800
C533        C  0.55069312  0.88773164  0.08484407     0.02400
C534        C  0.54566455  0.87287412  0.07975928    -0.33500
H535        H  0.58676281  0.90684698  0.08437504     0.13400
H536        H  0.59682622  0.93640414  0.09550012     0.13300
H537        H  0.53762831  0.93726508  0.11060350     0.13100
H538        H  0.52756910  0.90771620  0.09948156     0.12100
C539        C  0.03809979  0.97807870  0.58342887     0.18500
C540        C  0.04815008  0.96059923  0.57983290    -0.10600
C541        C  0.03720576  0.94286263  0.57778057    -0.11500
C542        C  0.01614483  0.94249330  0.57931713     0.20000
C543        C  0.00616485  0.95977706  0.58326490    -0.13500
C544        C  0.01712558  0.97754151  0.58532007    -0.11800
C545        C  0.00469403  0.92497702  0.57595016     0.01000
C546        C  0.99548343  0.91079760  0.57217878    -0.31800
C547        C  0.04907139  0.99687133  0.58427526     0.02400
C548        C  0.05839773  0.01257953  0.58407009    -0.33500
H549        H  0.06433582  0.96086535  0.57828233     0.13400
H550        H  0.04506844  0.92964152  0.57466799     0.13300
H551        H  0.98986686  0.95971230  0.58441758     0.13100
H552        H  0.00917256  0.99099909  0.58803866     0.12100
C553        C  0.96847649  0.44287512  0.65083076     0.18500
C554        C  0.94792329  0.44441960  0.65366006    -0.10600
C555        C  0.93730024  0.46234483  0.65156560    -0.11500
C556        C  0.94718640  0.47880632  0.64663867     0.20000
C557        C  0.96766412  0.47716635  0.64368102    -0.13500
C558        C  0.97828513  0.45924264  0.64577442    -0.11800
C559        C  0.93658906  0.49765539  0.64512049     0.01000
C560        C  0.92768790  0.51356123  0.64450427    -0.31800
C561        C  0.97977830  0.42497350  0.65366897     0.02400
C562        C  0.98958489  0.41062625  0.65672106    -0.33500
H563        H  0.94022219  0.43191468  0.65764480     0.13400
H564        H  0.92149958  0.46348680  0.65394756     0.13300
H565        H  0.97549011  0.48983538  0.63992855     0.13100
H566        H  0.99420771  0.45826764  0.64362385     0.12100
C567        C  0.91383395  0.73030436  0.58549690     0.18500
C568        C  0.90659810  0.71197845  0.58119007    -0.10600
C569        C  0.90260672  0.69563445  0.58821952    -0.11500
C570        C  0.90584287  0.69755127  0.59958154     0.20000
C571        C  0.91293144  0.71592353  0.60387573    -0.13500
C572        C  0.91691218  0.73223542  0.59686066    -0.11800
C573        C  0.90204234  0.68073817  0.60686957     0.01000
C574        C  0.89904155  0.66707696  0.61326902    -0.31800
C575        C  0.91857868  0.74703450  0.57831813     0.02400
C576        C  0.92330296  0.76145130  0.57277317    -0.33500
H577        H  0.90418758  0.71028663  0.57241719     0.13400
H578        H  0.89711413  0.68151095  0.58480024     0.13300
H579        H  0.91547750  0.71760422  0.61263912     0.13100
H580        H  0.92252777  0.74630650  0.60028837     0.12100
C581        C  0.92464786  0.50670711  0.83535714     0.18500
C582        C  0.92231468  0.52701128  0.83847835    -0.10600
C583        C  0.90383350  0.53694853  0.83669798    -0.11500
C584        C  0.88759467  0.52662311  0.83179574     0.20000
C585        C  0.88983101  0.50622381  0.82886282    -0.13500
C586        C  0.90828897  0.49629988  0.83063975    -0.11800
C587        C  0.86911125  0.53719957  0.82911099     0.01000
C588        C  0.85407932  0.54590310  0.82598278    -0.31800
C589        C  0.94401443  0.49676965  0.83649304     0.02400
C590        C  0.96013872  0.48812122  0.83680807    -0.33500
H591        H  0.93487019  0.53524759  0.84209035     0.13400
H592        H  0.90234184  0.55275821  0.83893433     0.13300
H593        H  0.87744556  0.49811189  0.82500124     0.13100
H594        H  0.90992103  0.48063080  0.82814974     0.12100
C595        C  0.81396956  0.61657248  0.71035325     0.18500
C596        C  0.79684380  0.60487152  0.71288079    -0.10600
C597        C  0.78931133  0.60439986  0.72365680    -0.11500
C598        C  0.79886300  0.61563604  0.73195870     0.20000
C599        C  0.81578599  0.62758897  0.72938713    -0.13500
C600        C  0.82331673  0.62805747  0.71861826    -0.11800
C601        C  0.79223664  0.61387165  0.74323027     0.01000
C602        C  0.78825995  0.61146549  0.75284168    -0.31800
C603        C  0.82265246  0.61585659  0.69946777     0.02400
C604        C  0.83069293  0.61413364  0.69058987    -0.33500
H605        H  0.78957371  0.59581251  0.70657913     0.13400
H606        H  0.77632656  0.59496803  0.72555761     0.13300
H607        H  0.82340621  0.63620685  0.73574947     0.13100
H608        H  0.83664809  0.63704585  0.71678704     0.12100
C609        C  0.38654117  0.57824772  0.90959815     0.18500
C610        C  0.38620998  0.59462967  0.90225835    -0.10600
C611        C  0.40411946  0.60521644  0.89989993    -0.11500
C612        C  0.42242615  0.59946242  0.90487314     0.20000
C613        C  0.42279171  0.58284454  0.91203696    -0.13500
C614        C  0.40492180  0.57228086  0.91438991    -0.11800
C615        C  0.44066245  0.61108739  0.90310803     0.01000
C616        C  0.45612912  0.62078844  0.90237207    -0.31800
C617        C  0.36800124  0.56814657  0.91270321     0.02400
C618        C  0.35300960  0.55971810  0.91611644    -0.33500
H619        H  0.37208367  0.59944315  0.89853388     0.13400
H620        H  0.40362339  0.61808419  0.89437758     0.13300
H621        H  0.43682075  0.57828805  0.91596345     0.13100
H622        H  0.40537021  0.55969965  0.92010755     0.12100
C623        C  0.55747665  0.76021880  0.98666258     0.18500
C624        C  0.56500121  0.74045290  0.98565401    -0.10600
C625        C  0.56568175  0.73103137  0.97533885    -0.11500
C626        C  0.55884091  0.74131353  0.96595743     0.20000
C627        C  0.55186511  0.76129389  0.96691476    -0.13500
C628        C  0.55117424  0.77072015  0.97723929    -0.11800
C629        C  0.55775306  0.73093880  0.95551611     0.01000
C630        C  0.55572006  0.72182358  0.94696445    -0.31800
C631        C  0.55461746  0.76891592  0.99744704     0.02400
C632        C  0.55080704  0.77455650  0.00667538    -0.33500
H633        H  0.56977898  0.73211469  0.99288197     0.13400
H634        H  0.57102657  0.71556033  0.97472491     0.13300
H635        H  0.54645173  0.76937893  0.95973544     0.13100
H636        H  0.54518524  0.78594476  0.97791348     0.12100
C637        C  0.67312295  0.62619844  0.84448790     0.18500
C638        C  0.67627174  0.62650420  0.85589587    -0.10600
C639        C  0.66027728  0.63121873  0.86302711    -0.11500
C640        C  0.64100609  0.63566105  0.85880723     0.20000
C641        C  0.63780381  0.63525993  0.84739685    -0.13500
C642        C  0.65382207  0.63054013  0.84025523    -0.11800
C643        C  0.62462089  0.64065676  0.86620716     0.01000
C644        C  0.61114373  0.64474034  0.87257123    -0.31800
C645        C  0.68976913  0.62155433  0.83719085     0.02400
C646        C  0.70419416  0.61760591  0.83144223    -0.33500
H647        H  0.69110673  0.62316550  0.85927500     0.13400
H648        H  0.66294992  0.63145337  0.87182518     0.13300
H649        H  0.62297229  0.63864284  0.84402850     0.13100
H650        H  0.65118283  0.63034318  0.83145496     0.12100
C651        C  0.14251258  0.00501132  0.39813764     0.18500
C652        C  0.13682040  0.98656478  0.40290877    -0.10600
C653        C  0.11857558  0.97734872  0.39989408    -0.11500
C654        C  0.10592840  0.98653453  0.39209593     0.20000
C655        C  0.11179816  0.00478344  0.38714797    -0.13500
C656        C  0.13007642  0.01401565  0.39016782    -0.11800
C657        C  0.08646228  0.97774988  0.38971449     0.01000
C658        C  0.06994341  0.97021038  0.38862445    -0.31800
C659        C  0.16036471  0.01528156  0.40201012     0.02400
C660        C  0.17451856  0.02405614  0.40607859    -0.33500
H661        H  0.14625322  0.97955097  0.40913503     0.13400
H662        H  0.11412243  0.96329683  0.40381372     0.13300
H663        H  0.10206848  0.01206786  0.38115443     0.13100
H664        H  0.13427493  0.02835844  0.38648782     0.12100
C665        C  0.94441653  0.85396618  0.47406624     0.18500
C666        C  0.96192136  0.84853385  0.46821523    -0.10600
C667        C  0.96458864  0.85507454  0.45735365    -0.11500
C668        C  0.94976724  0.86708860  0.45228652     0.20000
C669        C  0.93203215  0.87209437  0.45804168    -0.13500
C670        C  0.92936566  0.86555378  0.46890494    -0.11800
C671        C  0.95337994  0.87539435  0.44149522     0.01000
C672        C  0.95715698  0.88337019  0.43279805    -0.31800
C673        C  0.94264479  0.84899835  0.48557954     0.02400
C674        C  0.94215124  0.84626516  0.49539863    -0.33500
H675        H  0.97372999  0.83970639  0.47213974     0.13400
H676        H  0.97841653  0.85120552  0.45301152     0.13300
H677        H  0.92052194  0.88147123  0.45423436     0.13100
H678        H  0.91583668  0.86997250  0.47336631     0.12100
C679        C  0.60681567  0.11531491  0.33574764     0.18500
C680        C  0.62578061  0.12277712  0.33903288    -0.10600
C681        C  0.64355196  0.11279760  0.33579144    -0.11500
C682        C  0.64238930  0.09533718  0.32926003     0.20000
C683        C  0.62341274  0.08774247  0.32612516    -0.13500
C684        C  0.60568525  0.09769707  0.32935897    -0.11800
C685        C  0.66053274  0.08565654  0.32529015     0.01000
C686        C  0.67488850  0.07729685  0.32114678    -0.31800
C687        C  0.58850633  0.12611833  0.33843081     0.02400
C688        C  0.57267830  0.13487283  0.33987431    -0.33500
H689        H  0.62683327  0.13644778  0.34392897     0.13400
H690        H  0.65815325  0.11885847  0.33821602     0.13300
H691        H  0.62233637  0.07431483  0.32103209     0.13100
H692        H  0.59111535  0.09184711  0.32672791     0.12100
C693        C  0.69721824  0.01414531  0.20259383     0.18500
C694        C  0.71493386  0.02531194  0.20457430    -0.10600
C695        C  0.72423307  0.02457676  0.21492762    -0.11500
C696        C  0.71584356  0.01266512  0.22332599     0.20000
C697        C  0.69846022  0.00108728  0.22123623    -0.13500
C698        C  0.68917609  0.00182444  0.21090313    -0.11800
C699        C  0.72389149  0.01357873  0.23433050     0.01000
C700        C  0.72871573  0.01518044  0.24386482    -0.31800
C701        C  0.68636875  0.01647944  0.19238967     0.02400
C702        C  0.67605986  0.01932157  0.18433979    -0.33500
H703        H  0.72120397  0.03500646  0.19823390     0.13400
H704        H  0.73757236  0.03372502  0.21647659     0.13300
H705        H  0.69174540  0.99195543  0.22769020     0.13100
H706        H  0.67541279  0.99324002  0.20949327     0.12100
C707        C  0.88479522  0.97436013  0.34392497     0.18500
C708        C  0.87085603  0.98869002  0.34780537    -0.10600
C709        C  0.85479192  0.99495885  0.34111874    -0.11500
C710        C  0.85256263  0.98694025  0.33051029     0.20000
C711        C  0.86651595  0.97262269  0.32660585    -0.13500
C712        C  0.88260922  0.96634257  0.33330444    -0.11800
C713        C  0.83582259  0.99335134  0.32374609     0.01000
C714        C  0.82135673  0.99915721  0.31855844    -0.31800
C715        C  0.90114441  0.96779206  0.35092095     0.02400
C716        C  0.91443795  0.96247115  0.35709157    -0.33500
H717        H  0.87237160  0.99496493  0.35600630     0.13400
H718        H  0.84408033  0.00601131  0.34422844     0.13300
H719        H  0.86492374  0.96629698  0.31842220     0.13100
H720        H  0.89328120  0.95522481  0.33022703     0.12100
loop_ 
_geom_bond_atom_site_label_1 
_geom_bond_atom_site_label_2 
_geom_bond_distance 
_geom_bond_site_symmetry_2 
_ccdc_geom_bond_type 
N1            N2   1.322       .  A
N1            C5   1.347       .  A
N1           Cu9   2.075       .  S
N2            C3   1.343       .  A
N2           Cu8   2.067       .  S
C3            C4   1.378       .  A
C3            H6   1.082       .  S
C4            C5   1.381       .  A
C4          C686   1.436       .  S
C5            H7   1.082       .  S
Cu8          N11   2.068       .  S
Cu9          N19   2.076       .  S
Cu10         N12   2.077       .  S
Cu10         N18   2.078       .  S
N11          N12   1.323       .  A
N11          C15   1.343       .  A
N12          C13   1.348       .  A
C13          C14   1.381       .  A
C13          H16   1.082       .  S
C14          C15   1.378       .  A
C14         C700   1.437       .  S
C15          H17   1.082       .  S
N18          N19   1.324       .  A
N18          C22   1.347       .  A
N19          C20   1.345       .  A
C20          C21   1.379       .  A
C20          H23   1.082       .  S
C21          C22   1.380       .  A
C21         C714   1.437   1_545  S
C22          H24   1.082   1_545  S
N25          N26   1.323       .  A
N25          C29   1.346       .  A
N25         Cu33   2.074   1_455  S
N26          C27   1.344       .  A
N26         Cu32   2.069       .  S
C27          C28   1.378       .  A
C27          H30   1.082       .  S
C28          C29   1.380       .  A
C28         C658   1.435       .  S
C29          H31   1.082       .  S
Cu32         N35   2.069   1_455  S
Cu33         N43   2.074       .  S
Cu34         N36   2.076       .  S
Cu34         N42   2.076       .  S
N35          N36   1.322       .  A
N35          C39   1.345       .  A
N36          C37   1.347       .  A
C37          C38   1.381       .  A
C37          H40   1.082       .  S
C38          C39   1.379       .  A
C38         C672   1.438       .  S
C39          H41   1.082       .  S
N42          N43   1.324       .  A
N42          C46   1.345       .  A
N43          C44   1.346       .  A
C44          C45   1.379       .  A
C44          H47   1.082       .  S
C45          C46   1.379       .  A
C45         C716   1.437       .  S
C46          H48   1.082       .  S
N49          N50   1.323       .  A
N49          C53   1.347       .  A
N49         Cu57   2.077       .  S
N50          C51   1.345       .  A
N50         Cu56   2.076       .  S
C51          C52   1.380       .  A
C51          H54   1.082       .  S
C52          C53   1.381       .  A
C52         C616   1.439       .  S
C53          H55   1.082       .  S
Cu56         N59   2.076       .  S
Cu57         N67   2.077       .  S
Cu58         N60   2.082       .  S
Cu58         N66   2.082       .  S
N59          N60   1.323       .  A
N59          C63   1.346       .  A
N60          C61   1.348       .  A
C61          C62   1.381       .  A
C61          H64   1.082       .  S
C62          C63   1.380       .  A
C62         C630   1.441       .  S
C63          H65   1.082       .  S
N66          N67   1.324       .  A
N66          C70   1.347       .  A
N67          C68   1.346       .  A
C68          C69   1.379       .  A
C68          H71   1.082       .  S
C69          C70   1.381       .  A
C69         C644   1.440       .  S
C70          H72   1.082       .  S
N73          N74   1.322       .  A
N73          C77   1.348       .  A
N73         Cu81   2.080       .  S
N74          C75   1.344       .  A
N74         Cu80   2.066       .  S
C75          C76   1.378       .  A
C75          H78   1.082       .  S
C76          C77   1.383       .  A
C76         C588   1.439       .  S
C77          H79   1.082       .  S
Cu80         N83   2.066       .  S
Cu81         N91   2.080       .  S
Cu82         N84   2.085       .  S
Cu82         N90   2.086       .  S
N83          N84   1.323       .  A
N83          C87   1.343       .  A
N84          C85   1.349       .  A
C85          C86   1.383       .  A
C85          H88   1.082       .  S
C86          C87   1.377       .  A
C86         C602   1.439       .  S
C87          H89   1.082       .  S
N90          N91   1.325       .  A
N90          C94   1.348       .  A
N91          C92   1.345       .  A
C92          C93   1.379       .  A
C92          H95   1.082       .  S
C93          C94   1.381       .  A
C93         C646   1.440       .  S
C94          H96   1.082       .  S
N97          N98   1.323       .  A
N97         C101   1.347       .  A
N97        Cu105   2.079       .  S
N98          C99   1.343       .  A
N98        Cu104   2.065       .  S
C99         C100   1.377       .  A
C99         H102   1.082       .  S
C100        C101   1.382       .  A
C100        C560   1.436       .  S
C101        H103   1.082       .  S
Cu104       N107   2.065       .  S
Cu105       N115   2.079       .  S
Cu106       N108   2.081       .  S
Cu106       N114   2.081       .  S
N107        N108   1.322       .  A
N107        C111   1.344       .  A
N108        C109   1.348       .  A
C109        C110   1.382       .  A
C109        H112   1.082       .  S
C110        C111   1.378       .  A
C110        C604   1.438       .  S
C111        H113   1.082       .  S
N114        N115   1.325       .  A
N114        C118   1.346       .  A
N115        C116   1.347       .  A
C116        C117   1.380       .  A
C116        H119   1.082       .  S
C117        C118   1.380       .  A
C117        C574   1.439       .  S
C118        H120   1.082       .  S
N121        N122   1.322       .  A
N121        C125   1.347       .  A
N121       Cu129   2.076       .  S
N122        C123   1.344       .  A
N122       Cu128   2.071       .  S
C123        C124   1.379       .  A
C123        H126   1.082       .  S
C124        C125   1.381       .  A
C124        C546   1.438       .  S
C125        H127   1.082       .  S
Cu128       N131   2.071       .  S
Cu129       N139   2.077       .  S
Cu130       N132   2.081       .  S
Cu130       N138   2.082       .  S
N131        N132   1.323       .  A
N131        C135   1.344       .  A
N132        C133   1.348       .  A
C133        C134   1.382       .  A
C133        H136   1.082       .  S
C134        C135   1.378       .  A
C134        C674   1.438       .  S
C135        H137   1.082       .  S
N138        N139   1.324       .  A
N138        C142   1.347       .  A
N139        C140   1.345       .  A
C140        C141   1.379       .  A
C140        H143   1.082       .  S
C141        C142   1.381       .  A
C141        C576   1.439       .  S
C142        H144   1.082       .  S
N145        N146   1.323       .  A
N145        C149   1.348       .  A
N145       Cu153   2.077       .  S
N146        C147   1.344       .  A
N146       Cu152   2.071       .  S
C147        C148   1.379       .  A
C147        H150   1.082       .  S
C148        C149   1.382       .  A
C148        C520   1.439       .  S
C149        H151   1.082       .  S
Cu152       N155   2.071       .  S
Cu153       N163   2.077       .  S
Cu154       N156   2.080       .  S
Cu154       N162   2.080       .  S
N155        N156   1.323       .  A
N155        C159   1.344       .  A
N156        C157   1.349       .  A
C157        C158   1.382       .  A
C157        H160   1.082       .  S
C158        C159   1.378       .  A
C158        C632   1.440       .  S
C159        H161   1.082       .  S
N162        N163   1.325       .  A
N162        C166   1.346       .  A
N163        C164   1.345       .  A
C164        C165   1.379       .  A
C164        H167   1.082       .  S
C165        C166   1.379       .  A
C165        C534   1.437       .  S
C166        H168   1.082       .  S
N169        N170   1.323       .  A
N169        C173   1.346       .  A
N169       Cu177   2.074       .  S
N170        C171   1.344       .  A
N170       Cu176   2.070       .  S
C171        C172   1.379       .  A
C171        H174   1.082       .  S
C172        C173   1.380       .  A
C172        C504   1.436       .  S
C173        H175   1.082       .  S
Cu176       N179   2.070       .  S
Cu177       N187   2.074       .  S
Cu178       N180   2.074       .  S
Cu178       N186   2.075       .  S
N179        N180   1.322       .  A
N179        C183   1.344       .  A
N180        C181   1.347       .  A
C181        C182   1.381       .  A
C181        H184   1.082   1_545  S
C182        C183   1.378       .  A
C182        C702   1.437       .  S
C183        H185   1.082       .  S
N186        N187   1.324       .  A
N186        C190   1.345   1_545  A
N187        C188   1.346       .  A
C188        C189   1.379   1_545  A
C188        H191   1.082       .  S
C189        C190   1.378       .  A
C189        C532   1.436       .  S
C190        H192   1.082       .  S
N193        N194   1.322       .  A
N193        C197   1.348       .  A
N193       Cu201   2.077       .  S
N194        C195   1.345       .  A
N194       Cu200   2.072       .  S
C195        C196   1.379       .  A
C195        H198   1.082       .  S
C196        C197   1.382       .  A
C196        C618   1.439       .  S
C197        H199   1.082       .  S
Cu200       N203   2.072       .  S
Cu201       N211   2.078       .  S
Cu202       N204   2.084       .  S
Cu202       N210   2.085       .  S
N203        N204   1.323       .  A
N203        C207   1.344       .  A
N204        C205   1.349       .  A
C205        C206   1.382       .  A
C205        H208   1.082       .  S
C206        C207   1.378       .  A
C206        C476   1.440       .  S
C207        H209   1.082       .  S
N210        N211   1.325       .  A
N210        C214   1.348       .  A
N211        C212   1.345       .  A
C212        C213   1.379       .  A
C212        H215   1.082       .  S
C213        C214   1.381       .  A
C213        C492   1.440       .  S
C214        H216   1.082       .  S
N217        N218   1.323       .  A
N217        C221   1.348   1_455  A
N217       Cu225   2.081       .  S
N218        C219   1.345   1_455  A
N218       Cu224   2.072       .  S
C219        C220   1.379       .  A
C219        H222   1.082       .  S
C220        C221   1.382       .  A
C220        C590   1.439       .  S
C221        H223   1.082       .  S
Cu224       N227   2.072       .  S
Cu225       N235   2.081       .  S
Cu226       N228   2.078       .  S
Cu226       N234   2.078       .  S
N227        N228   1.323       .  A
N227        C231   1.345       .  A
N228        C229   1.347       .  A
C229        C230   1.381       .  A
C229        H232   1.082       .  S
C230        C231   1.379       .  A
C230        C462   1.438       .  S
C231        H233   1.082       .  S
N234        N235   1.324       .  A
N234        C238   1.346       .  A
N235        C236   1.346       .  A
C236        C237   1.380       .  A
C236        H239   1.082       .  S
C237        C238   1.380       .  A
C237        C490   1.440       .  S
C238        H240   1.082       .  S
N241        N242   1.323       .  A
N241        C245   1.348       .  A
N241       Cu249   2.083       .  S
N242        C243   1.345       .  A
N242       Cu248   2.073       .  S
C243        C244   1.379       .  A
C243        H246   1.082       .  S
C244        C245   1.382       .  A
C244        C518   1.440       .  S
C245        H247   1.082       .  S
Cu248       N251   2.073       .  S
Cu249       N259   2.083       .  S
Cu250       N252   2.080       .  S
Cu250       N258   2.080       .  S
N251        N252   1.323       .  A
N251        C255   1.345       .  A
N252        C253   1.347       .  A
C253        C254   1.382       .  A
C253        H256   1.082       .  S
C254        C255   1.379       .  A
C254        C478   1.440       .  S
C255        H257   1.082       .  S
N258        N259   1.324       .  A
N258        C262   1.346       .  A
N259        C260   1.347       .  A
C260        C261   1.381       .  A
C260        H263   1.082       .  S
C261        C262   1.380       .  A
C261        C450   1.441       .  S
C262        H264   1.082       .  S
N265        N266   1.322       .  A
N265        C269   1.347       .  A
N265       Cu273   2.076       .  S
N266        C267   1.344       .  A
N266       Cu272   2.068       .  S
C267        C268   1.378       .  A
C267        H270   1.082       .  S
C268        C269   1.381       .  A
C268        C506   1.437       .  S
C269        H271   1.082       .  S
Cu272       N275   2.068       .  S
Cu273       N283   2.077       .  S
Cu274       N276   2.086       .  S
Cu274       N282   2.086       .  S
N275        N276   1.323       .  A
N275        C279   1.344       .  A
N276        C277   1.349       .  A
C277        C278   1.383       .  A
C277        H280   1.082       .  S
C278        C279   1.378       .  A
C278        C434   1.440       .  S
C279        H281   1.082       .  S
N282        N283   1.325       .  A
N282        C286   1.347       .  A
N283        C284   1.346       .  A
C284        C285   1.379       .  A
C284        H287   1.082       .  S
C285        C286   1.381       .  A
C285        C448   1.441       .  S
C286        H288   1.082       .  S
N289        N290   1.322       .  A
N289        C293   1.348       .  A
N289       Cu297   2.077       .  S
N290        C291   1.343       .  A
N290       Cu296   2.066       .  S
C291        C292   1.377       .  A
C291        H294   1.082       .  S
C292        C293   1.382       .  A
C292        C562   1.437   1_455  S
C293        H295   1.082       .  S
Cu296       N299   2.066       .  S
Cu297       N307   2.078       .  S
Cu298       N300   2.080       .  S
Cu298       N306   2.081       .  S
N299        N300   1.322       .  A
N299        C303   1.343       .  A
N300        C301   1.348       .  A
C301        C302   1.382       .  A
C301        H304   1.082       .  S
C302        C303   1.378       .  A
C302        C464   1.438       .  S
C303        H305   1.082       .  S
N306        N307   1.325       .  A
N306        C310   1.347       .  A
N307        C308   1.345       .  A
C308        C309   1.379       .  A
C308        H311   1.082       .  S
C309        C310   1.380       .  A
C309        C422   1.438       .  S
C310        H312   1.082       .  S
N313        N314   1.323       .  A
N313        C317   1.346       .  A
N313       Cu321   2.069       .  S
N314        C315   1.346       .  A
N314       Cu320   2.077       .  S
C315        C316   1.381       .  A
C315        H318   1.082       .  S
C316        C317   1.379       .  A
C316        C548   1.437       .  S
C317        H319   1.082       .  S
Cu320       N323   2.077       .  S
Cu321       N331   2.069       .  S
Cu322       N324   2.080       .  S
Cu322       N330   2.080       .  S
N323        N324   1.324       .  A
N323        C327   1.345       .  A
N324        C325   1.347       .  A
C325        C326   1.380       .  A
C325        H328   1.082       .  S
C326        C327   1.379       .  A
C326        C408   1.439       .  S
C327        H329   1.082       .  S
N330        N331   1.323       .  A
N330        C334   1.347       .  A
N331        C332   1.345       .  A
C332        C333   1.378       .  A
C332        H335   1.082       .  S
C333        C334   1.381       .  A
C333        C420   1.438       .  S
C334        H336   1.082       .  S
N337        N338   1.323       .  A
N337        C341   1.346       .  A
N337       Cu345   2.076       .  S
N338        C339   1.345       .  A
N338       Cu344   2.074       .  S
C339        C340   1.379       .  A
C339        H342   1.082       .  S
C340        C341   1.380       .  A
C340        C688   1.437       .  S
C341        H343   1.082       .  S
Cu344       N347   2.074       .  S
Cu345       N355   2.076       .  S
Cu346       N348   2.077       .  S
Cu346       N354   2.077       .  S
N347        N348   1.323       .  A
N347        C351   1.346       .  A
N348        C349   1.346       .  A
C349        C350   1.380       .  A
C349        H352   1.082       .  S
C350        C351   1.380       .  A
C350        C436   1.439       .  S
C351        H353   1.082       .  S
N354        N355   1.323       .  A
N354        C358   1.346       .  A
N355        C356   1.346       .  A
C356        C357   1.380       .  A
C356        H359   1.082       .  S
C357        C358   1.380       .  A
C357        C392   1.438       .  S
C358        H360   1.082       .  S
N361        N362   1.322       .  A
N361        C365   1.346       .  A
N361       Cu369   2.069       .  S
N362        C363   1.343       .  A
N362       Cu368   2.065       .  S
C363        C364   1.378       .  A
C363        H366   1.082       .  S
C364        C365   1.380       .  A
C364        C660   1.435       .  S
C365        H367   1.082       .  S
Cu368       N371   2.066       .  S
Cu369       N379   2.070       .  S
Cu370       N372   2.085       .  S
Cu370       N378   2.086       .  S
N371        N372   1.323       .  A
N371        C375   1.343       .  A
N372        C373   1.349       .  A
C373        C374   1.383       .  A
C373        H376   1.082       .  S
C374        C375   1.377       .  A
C374        C406   1.439       .  S
C375        H377   1.082       .  S
N378        N379   1.325       .  A
N378        C382   1.347       .  A
N379        C380   1.344       .  A
C380        C381   1.377       .  A
C380        H383   1.082       .  S
C381        C382   1.381       .  A
C381        C394   1.438       .  S
C382        H384   1.082       .  S
C385        C386   1.402       .  A
C385        C390   1.401       .  A
C385        C393   1.441       .  S
C386        C387   1.399       .  A
C386        H395   1.084       .  S
C387        C388   1.401       .  A
C387        H396   1.083       .  S
C388        C389   1.402       .  A
C388        C391   1.441       .  S
C389        C390   1.400       .  A
C389        H397   1.083       .  S
C390        H398   1.083       .  S
C391        C392   1.207       .  T
C393        C394   1.207       .  T
C399        C400   1.401       .  A
C399        C404   1.402       .  A
C399        C407   1.442       .  S
C400        C401   1.399       .  A
C400        H409   1.083       .  S
C401        C402   1.401       .  A
C401        H410   1.083       .  S
C402        C403   1.402       .  A
C402        C405   1.442       .  S
C403        C404   1.400       .  A
C403        H411   1.083       .  S
C404        H412   1.083       .  S
C405        C406   1.207       .  T
C407        C408   1.207       .  T
C413        C414   1.402       .  A
C413        C418   1.401       .  A
C413        C421   1.441       .  S
C414        C415   1.400       .  A
C414        H423   1.083       .  S
C415        C416   1.402       .  A
C415        H424   1.083       .  S
C416        C417   1.401       .  A
C416        C419   1.441       .  S
C417        C418   1.398       .  A
C417        H425   1.083       .  S
C418        H426   1.083       .  S
C419        C420   1.206       .  T
C421        C422   1.207       .  T
C427        C428   1.402       .  A
C427        C432   1.402       .  A
C427        C435   1.442       .  S
C428        C429   1.400       .  A
C428        H437   1.083       .  S
C429        C430   1.402       .  A
C429        H438   1.083       .  S
C430        C431   1.402       .  A
C430        C433   1.442       .  S
C431        C432   1.400       .  A
C431        H439   1.083       .  S
C432        H440   1.083       .  S
C433        C434   1.207       .  T
C435        C436   1.207       .  T
C441        C442   1.402       .  A
C441        C446   1.402       .  A
C441        C449   1.444       .  S
C442        C443   1.400       .  A
C442        H451   1.083       .  S
C443        C444   1.402       .  A
C443        H452   1.083       .  S
C444        C445   1.402       .  A
C444        C447   1.444       .  S
C445        C446   1.401       .  A
C445        H453   1.083       .  S
C446        H454   1.083       .  S
C447        C448   1.208       .  T
C449        C450   1.208       .  T
C455        C456   1.401       .  A
C455        C460   1.402       .  A
C455        C463   1.441       .  S
C456        C457   1.398       .  A
C456        H465   1.084       .  S
C457        C458   1.401       .  A
C457        H466   1.084       .  S
C458        C459   1.402       .  A
C458        C461   1.441       .  S
C459        C460   1.401       .  A
C459        H467   1.083       .  S
C460        H468   1.083       .  S
C461        C462   1.207       .  T
C463        C464   1.207       .  T
C469        C470   1.402       .  A
C469        C474   1.401       .  A
C469        C477   1.443       .  S
C470        C471   1.401       .  A
C470        H479   1.083       .  S
C471        C472   1.402       .  A
C471        H480   1.083       .  S
C472        C473   1.402       .  A
C472        C475   1.443       .  S
C473        C474   1.399       .  A
C473        H481   1.083       .  S
C474        H482   1.083       .  S
C475        C476   1.208   1_554  T
C477        C478   1.208       .  T
C483        C484   1.402       .  A
C483        C488   1.402       .  A
C483        C491   1.443       .  S
C484        C485   1.401       .  A
C484        H493   1.083       .  S
C485        C486   1.402       .  A
C485        H494   1.083       .  S
C486        C487   1.401       .  A
C486        C489   1.443       .  S
C487        C488   1.399       .  A
C487        H495   1.084       .  S
C488        H496   1.083       .  S
C489        C490   1.208       .  T
C491        C492   1.208       .  T
C497        C498   1.401       .  A
C497        C502   1.401       .  A
C497        C505   1.440       .  S
C498        C499   1.398       .  A
C498        H507   1.084       .  S
C499        C500   1.401       .  A
C499        H508   1.083       .  S
C500        C501   1.402       .  A
C500        C503   1.439       .  S
C501        C502   1.400       .  A
C501        H509   1.083       .  S
C502        H510   1.083       .  S
C503        C504   1.206       .  T
C505        C506   1.206       .  T
C511        C512   1.402       .  A
C511        C516   1.402       .  A
C511        C519   1.442       .  S
C512        C513   1.400       .  A
C512        H521   1.083       .  S
C513        C514   1.402       .  A
C513        H522   1.083       .  S
C514        C515   1.402       .  A
C514        C517   1.443       .  S
C515        C516   1.400       .  A
C515        H523   1.083       .  S
C516        H524   1.083       .  S
C517        C518   1.208       .  T
C519        C520   1.207       .  T
C525        C526   1.401       .  A
C525        C530   1.401       .  A
C525        C533   1.440       .  S
C526        C527   1.399       .  A
C526        H535   1.083       .  S
C527        C528   1.401       .  A
C527        H536   1.084       .  S
C528        C529   1.401       .  A
C528        C531   1.439       .  S
C529        C530   1.399       .  A
C529        H537   1.083       .  S
C530        H538   1.084       .  S
C531        C532   1.205       .  T
C533        C534   1.206       .  T
C539        C540   1.401       .  A
C539        C544   1.402       .  A
C539        C547   1.440       .  S
C540        C541   1.398       .  A
C540        H549   1.084       .  S
C541        C542   1.401       .  A
C541        H550   1.083       .  S
C542        C543   1.402       .  A
C542        C545   1.441       .  S
C543        C544   1.400       .  A
C543        H551   1.083   1_455  S
C544        H552   1.083       .  S
C545        C546   1.206   1_455  T
C547        C548   1.206   1_565  T
C553        C554   1.401       .  A
C553        C558   1.401       .  A
C553        C561   1.440       .  S
C554        C555   1.399       .  A
C554        H563   1.083       .  S
C555        C556   1.402       .  A
C555        H564   1.084       .  S
C556        C557   1.401       .  A
C556        C559   1.440       .  S
C557        C558   1.399       .  A
C557        H565   1.083       .  S
C558        H566   1.083       .  S
C559        C560   1.206       .  T
C561        C562   1.206       .  T
C567        C568   1.402       .  A
C567        C572   1.401       .  A
C567        C575   1.442       .  S
C568        C569   1.401       .  A
C568        H577   1.083       .  S
C569        C570   1.402       .  A
C569        H578   1.083       .  S
C570        C571   1.401       .  A
C570        C573   1.442       .  S
C571        C572   1.398       .  A
C571        H579   1.083       .  S
C572        H580   1.084       .  S
C573        C574   1.207       .  T
C575        C576   1.207       .  T
C581        C582   1.402       .  A
C581        C586   1.401       .  A
C581        C589   1.442       .  S
C582        C583   1.401       .  A
C582        H591   1.083       .  S
C583        C584   1.402       .  A
C583        H592   1.083       .  S
C584        C585   1.401       .  A
C584        C587   1.442       .  S
C585        C586   1.399       .  A
C585        H593   1.083       .  S
C586        H594   1.083       .  S
C587        C588   1.207       .  T
C589        C590   1.207       .  T
C595        C596   1.402       .  A
C595        C600   1.401       .  A
C595        C603   1.441       .  S
C596        C597   1.400       .  A
C596        H605   1.083       .  S
C597        C598   1.402       .  A
C597        H606   1.083       .  S
C598        C599   1.402       .  A
C598        C601   1.442       .  S
C599        C600   1.399       .  A
C599        H607   1.083       .  S
C600        H608   1.083       .  S
C601        C602   1.207       .  T
C603        C604   1.207       .  T
C609        C610   1.402       .  A
C609        C614   1.401       .  A
C609        C617   1.442       .  S
C610        C611   1.402       .  A
C610        H619   1.083       .  S
C611        C612   1.402       .  A
C611        H620   1.083       .  S
C612        C613   1.401       .  A
C612        C615   1.442       .  S
C613        C614   1.398       .  A
C613        H621   1.084       .  S
C614        H622   1.084       .  S
C615        C616   1.207       .  T
C617        C618   1.207       .  T
C623        C624   1.402       .  A
C623        C628   1.402       .  A
C623        C631   1.443       .  S
C624        C625   1.400       .  A
C624        H633   1.083       .  S
C625        C626   1.402       .  A
C625        H634   1.083       .  S
C626        C627   1.402       .  A
C626        C629   1.443       .  S
C627        C628   1.401       .  A
C627        H635   1.083       .  S
C628        H636   1.083       .  S
C629        C630   1.208       .  T
C631        C632   1.208   1_556  T
C637        C638   1.402       .  A
C637        C642   1.402       .  A
C637        C645   1.443       .  S
C638        C639   1.399       .  A
C638        H647   1.084       .  S
C639        C640   1.401       .  A
C639        H648   1.083       .  S
C640        C641   1.402       .  A
C640        C643   1.443       .  S
C641        C642   1.401       .  A
C641        H649   1.083       .  S
C642        H650   1.083       .  S
C643        C644   1.208       .  T
C645        C646   1.208       .  T
C651        C652   1.400   1_545  A
C651        C656   1.402       .  A
C651        C659   1.438       .  S
C652        C653   1.397       .  A
C652        H661   1.084       .  S
C653        C654   1.401       .  A
C653        H662   1.084       .  S
C654        C655   1.401   1_565  A
C654        C657   1.438       .  S
C655        C656   1.399       .  A
C655        H663   1.083       .  S
C656        H664   1.083       .  S
C657        C658   1.205       .  T
C659        C660   1.205       .  T
C665        C666   1.402       .  A
C665        C670   1.402       .  A
C665        C673   1.441       .  S
C666        C667   1.399       .  A
C666        H675   1.083       .  S
C667        C668   1.402       .  A
C667        H676   1.083       .  S
C668        C669   1.401       .  A
C668        C671   1.441       .  S
C669        C670   1.400       .  A
C669        H677   1.083       .  S
C670        H678   1.083       .  S
C671        C672   1.206       .  T
C673        C674   1.207       .  T
C679        C680   1.402       .  A
C679        C684   1.401       .  A
C679        C687   1.439       .  S
C680        C681   1.401       .  A
C680        H689   1.083       .  S
C681        C682   1.402       .  A
C681        H690   1.083       .  S
C682        C683   1.401       .  A
C682        C685   1.439       .  S
C683        C684   1.397       .  A
C683        H691   1.084       .  S
C684        H692   1.084       .  S
C685        C686   1.206       .  T
C687        C688   1.206       .  T
C693        C694   1.402       .  A
C693        C698   1.401       .  A
C693        C701   1.440       .  S
C694        C695   1.400       .  A
C694        H703   1.083       .  S
C695        C696   1.402       .  A
C695        H704   1.083       .  S
C696        C697   1.401       .  A
C696        C699   1.440       .  S
C697        C698   1.398       .  A
C697        H705   1.084   1_545  S
C698        H706   1.083   1_545  S
C699        C700   1.206       .  T
C701        C702   1.206       .  T
C707        C708   1.401       .  A
C707        C712   1.402       .  A
C707        C715   1.440       .  S
C708        C709   1.398       .  A
C708        H717   1.084       .  S
C709        C710   1.401       .  A
C709        H718   1.083   1_565  S
C710        C711   1.402       .  A
C710        C713   1.440       .  S
C711        C712   1.400       .  A
C711        H719   1.083       .  S
C712        H720   1.083       .  S
C713        C714   1.206       .  T
C715        C716   1.206       .  T
