geometry optimzed in LAMMPS
_audit_creation_date              2020-11-30 
_audit_creation_method            'lammps2cif' 
_symmetry_space_group_name_H-M    'P1' 
_symmetry_Int_Tables_number       1 
_symmetry_cell_setting            triclinic 
loop_ 
_symmetry_equiv_pos_as_xyz 
  x,y,z 
_cell_length_a                    45.11720961 
_cell_length_b                    44.81958734882206 
_cell_length_c                    45.349948238089965 
_cell_angle_alpha                 89.55190738104888 
_cell_angle_beta                  90.13578911911303 
_cell_angle_gamma                 91.0552995201003 
loop_ 
_atom_site_label 
_atom_site_type_symbol 
_atom_site_fract_x 
_atom_site_fract_y 
_atom_site_fract_z 
_atom_site_charge 
O1          O  0.52743667  0.96881606  0.47803597    -0.80300
O2          O  0.45272069  0.95919787  0.49992774    -0.80400
O3          O  0.52663605  0.98663844  0.56161110    -0.80400
O4          O  0.47573733  0.98441593  0.44363958    -0.80300
O5          O  0.49417129  0.95360710  0.54444270    -0.80400
O6          O  0.51859979  0.99864979  0.42514846    -0.80400
O7          O  0.42785468  0.99282510  0.47705919    -0.80300
O8          O  0.55684475  0.99181767  0.50994792    -0.80400
C9          C  0.55226275  0.97126253  0.49071718     1.09400
C10         C  0.42880133  0.96684233  0.48813955     1.09200
C11         C  0.51542097  0.96058759  0.56156038     1.09400
C12         C  0.49385359  0.98529294  0.42172644     1.09300
O13         O  0.49532255  0.04748686  0.45132909    -0.80300
O14         O  0.47292546  0.00638536  0.57062837    -0.80400
O15         O  0.53378313  0.05375240  0.50527133    -0.80300
O16         O  0.45044510  0.04880051  0.49914378    -0.80300
O17         O  0.43046286  0.01374070  0.52766230    -0.80400
O18         O  0.55006787  0.02809723  0.46911201    -0.80300
O19         O  0.44894981  0.03741592  0.43904078    -0.80300
O20         O  0.50243630  0.04418601  0.55741693    -0.80400
Co21       Co  0.51028926  0.00648579  0.46606831     1.51500
Co22       Co  0.46409237  0.98391954  0.53375871     1.51700
Co23       Co  0.52791351  0.01924399  0.53181751     1.51600
Co24       Co  0.46547437  0.01803561  0.47298715     1.51500
O25         O  0.49249115  0.00647109  0.50695779    -1.42300
C26         C  0.47302480  0.05163602  0.43405810     1.09300
C27         C  0.48543852  0.03134661  0.57617307     1.09400
C28         C  0.55406987  0.04925928  0.48707977     1.09300
C29         C  0.42914563  0.03940436  0.51493413     1.09300
O30         O  0.96312206  0.53523142  0.50516097    -0.80300
O31         O  0.96827641  0.45551000  0.48998952    -0.80400
O32         O  0.98316217  0.50493558  0.44684104    -0.80400
O33         O  0.99851921  0.46683000  0.57056120    -0.80300
O34         O  0.99267739  0.45940047  0.43344465    -0.80400
O35         O  0.96296659  0.49570678  0.55439053    -0.80400
O36         O  0.99469781  0.43009031  0.52250474    -0.80300
O37         O  0.99483308  0.55603610  0.47498317    -0.80400
C38         C  0.97107200  0.55766799  0.48983892     1.09400
C39         C  0.97219585  0.43199824  0.50507918     1.09200
C40         C  0.98244887  0.48467157  0.42683276     1.09400
C41         C  0.97316790  0.47789546  0.57373390     1.09300
O42         O  0.01952252  0.52045541  0.57012284    -0.80300
O43         O  0.04397606  0.48518705  0.45312447    -0.80400
O44         O  0.05197929  0.53809081  0.49437740    -0.80300
O45         O  0.05593151  0.45032738  0.50764291    -0.80300
O46         O  0.02442796  0.43239092  0.47648513    -0.80400
O47         O  0.02015855  0.55911208  0.52441166    -0.80300
O48         O  0.05462343  0.48999603  0.55508483    -0.80300
O49         O  0.03614975  0.53020903  0.43508550    -0.80400
Co50       Co  0.99165651  0.52553662  0.53660023     1.51500
Co51       Co  0.00436223  0.47205547  0.47235800     1.51700
Co52       Co  0.01910746  0.51858872  0.47260280     1.51600
Co53       Co  0.02563573  0.46139192  0.53689336     1.51500
O54         O  0.01011809  0.49451592  0.51014383    -1.42300
C55         C  0.04553330  0.51023160  0.57228001     1.09300
C56         C  0.04790718  0.50469938  0.43245367     1.09400
C57         C  0.04414152  0.56037136  0.50942372     1.09300
C58         C  0.04768584  0.42896304  0.49154635     1.09300
O59         O  0.47368731  0.50044134  0.04124928    -0.80300
O60         O  0.55553420  0.48815020  0.03379639    -0.80400
O61         O  0.50495026  0.44414791  0.02701867    -0.80400
O62         O  0.53977503  0.56468035  0.99689826    -0.80300
O63         O  0.54968685  0.42819808  0.01803155    -0.80400
O64         O  0.51324191  0.54956578  0.03516839    -0.80400
O65         O  0.57753771  0.51871537  0.00174006    -0.80300
O66         O  0.45264179  0.46766577  0.01275297    -0.80400
C67         C  0.45150938  0.48390067  0.03547616     1.09400
C68         C  0.57781658  0.50409989  0.02624364     1.09200
C69         C  0.52438956  0.42368223  0.02967845     1.09400
C70         C  0.53059325  0.56859200  0.02293619     1.09300
O71         O  0.48658851  0.56186150  0.97941634    -0.80300
O72         O  0.52273871  0.44057387  0.96589920    -0.80400
O73         O  0.46908064  0.48072084  0.95428880    -0.80300
O74         O  0.55345920  0.49619268  0.94511431    -0.80300
O75         O  0.57475171  0.46879938  0.97786953    -0.80400
O76         O  0.44915299  0.51489992  0.98298623    -0.80300
O77         O  0.51435232  0.54418964  0.94359556    -0.80300
O78         O  0.47840569  0.42307755  0.97749582    -0.80400
Co79       Co  0.48267756  0.52976713  0.00959883     1.51500
Co80       Co  0.53696883  0.46570718  0.00151609     1.51700
Co81       Co  0.48972897  0.46352961  0.98852607     1.51600
Co82       Co  0.54437296  0.52892344  0.97217568     1.51500
O83         O  0.51318526  0.50245867  0.99219691    -1.42300
C84         C  0.49528560  0.56251332  0.95280601     1.09300
C85         C  0.50350286  0.41896747  0.96553552     1.09400
C86         C  0.44763442  0.49757024  0.96065119     1.09300
C87         C  0.57612657  0.48246867  0.95336828     1.09300
C88         C  0.59032768  0.94364275  0.76893311     0.02900
C89         C  0.61493014  0.92458005  0.76958007    -0.13200
C90         C  0.62125371  0.90636805  0.74545894     0.00400
C91         C  0.60343564  0.90753988  0.72020989    -0.11700
C92         C  0.57952611  0.92710092  0.71824010     0.02900
C93         C  0.57317096  0.94506491  0.74285158    -0.11200
H94         H  0.62890417  0.92333805  0.78898180     0.08500
H95         H  0.60812227  0.89257648  0.70224595     0.06000
H96         H  0.55452502  0.95984248  0.74190613     0.05900
C97         C  0.77166215  0.74578746  0.71481080     0.02900
C98         C  0.74989733  0.76769720  0.71613381    -0.13200
C99         C  0.72833513  0.76663116  0.73852118     0.00400
C100        C  0.72881710  0.74325142  0.75947324    -0.11700
C101        C  0.75097494  0.72151425  0.75892185     0.02900
C102        C  0.77245638  0.72333241  0.73643793    -0.11200
H103        H  0.74926491  0.78500064  0.69932982     0.08500
H104        H  0.71177868  0.74213171  0.77621677     0.06000
H105        H  0.79007960  0.70731946  0.73549855     0.05900
C106        C  0.94880142  0.76430711  0.57174035     0.02900
C107        C  0.95282699  0.73550783  0.55998268    -0.13200
C108        C  0.93350646  0.71155062  0.56767165     0.00400
C109        C  0.91043260  0.71663906  0.58782801    -0.11700
C110        C  0.90615488  0.74494277  0.59998001     0.02900
C111        C  0.92477037  0.76863744  0.59093412    -0.11200
H112        H  0.97135668  0.73141788  0.54556078     0.08500
H113        H  0.89589844  0.69831868  0.59437469     0.06000
H114        H  0.92003373  0.79078971  0.59870307     0.05900
C115        C  0.78404783  0.57468767  0.92391970     0.02900
C116        C  0.75918103  0.55771782  0.93291543    -0.13200
C117        C  0.73039707  0.56550707  0.92384685     0.00400
C118        C  0.72697261  0.59086355  0.90564197    -0.11700
C119        C  0.75183182  0.60754623  0.89599256     0.02900
C120        C  0.78027312  0.59937990  0.90525755    -0.11200
H121        H  0.76248816  0.53780017  0.94610602     0.08500
H122        H  0.70510613  0.59726021  0.89831928     0.06000
H123        H  0.79954121  0.61173137  0.89723881     0.05900
C124        C  0.27046853  0.22805380  0.73149733     0.02900
C125        C  0.24910438  0.23193403  0.70946466    -0.13200
C126        C  0.23375243  0.25876980  0.70731653     0.00400
C127        C  0.23963729  0.28176417  0.72748629    -0.11700
C128        C  0.26019141  0.27777532  0.75063614     0.02900
C129        C  0.27547819  0.25066377  0.75217730    -0.11200
H130        H  0.24468534  0.21427377  0.69375992     0.08500
H131        H  0.22782083  0.30244644  0.72515978     0.06000
H132        H  0.29078283  0.24636028  0.77005476     0.05900
C133        C  0.29031728  0.42945923  0.91217330     0.02900
C134        C  0.28612321  0.41131000  0.88724493    -0.13200
C135        C  0.25802688  0.39994470  0.87943369     0.00400
C136        C  0.23362707  0.40795159  0.89654363    -0.11700
C137        C  0.23673128  0.42744272  0.92053867     0.02900
C138        C  0.26528621  0.43784143  0.92869492    -0.11200
H139        H  0.30501995  0.40643015  0.87355156     0.08500
H140        H  0.21178187  0.39908305  0.89125999     0.06000
H141        H  0.26791961  0.45244775  0.94746406     0.05900
C142        C  0.41028115  0.06438647  0.78815113     0.02900
C143        C  0.42750080  0.05308942  0.76491931    -0.13200
C144        C  0.42528803  0.06538552  0.73617167     0.00400
C145        C  0.40510706  0.08835174  0.73102370    -0.11700
C146        C  0.38763317  0.09924914  0.75374250     0.02900
C147        C  0.39005450  0.08713632  0.78211696    -0.11200
H148        H  0.44359399  0.03601184  0.76953566     0.08500
H149        H  0.40281684  0.09795914  0.70914164     0.06000
H150        H  0.37721524  0.09648015  0.79988326     0.05900
C151        C  0.06588140  0.21162721  0.56564721     0.02900
C152        C  0.05997113  0.23588270  0.54653934    -0.13200
C153        C  0.07327140  0.26444062  0.55144936     0.00400
C154        C  0.09231949  0.26794936  0.57601668    -0.11700
C155        C  0.09850030  0.24399321  0.59496061     0.02900
C156        C  0.08500469  0.21621320  0.58966318    -0.11200
H157        H  0.04576250  0.23218579  0.52761128     0.08500
H158        H  0.10173029  0.28962906  0.58126162     0.06000
H159        H  0.08979455  0.19766821  0.60425158     0.05900
O160        O  0.52167797  0.97793408  0.94088621    -0.80300
O161        O  0.51742852  0.00805732  0.07046463    -0.80400
O162        O  0.55304458  0.02177097  0.99514108    -0.80400
O163        O  0.55354592  0.96771406  0.01732176    -0.80300
O164        O  0.53015002  0.04914406  0.02743796    -0.80400
O165        O  0.53272483  0.93747450  0.98553475    -0.80400
O166        O  0.53578248  0.96255071  0.07512498    -0.80300
O167        O  0.53685758  0.02543938  0.93643911    -0.80400
C168        C  0.53625094  0.99872230  0.92685944     1.09400
C169        C  0.53247171  0.98877233  0.08522111     1.09200
C170        C  0.55282562  0.04436232  0.01164259     1.09400
C171        C  0.55461357  0.94432242  0.00214332     1.09300
O172        O  0.46997403  0.93645133  0.00143398    -0.80300
O173        O  0.46884895  0.04749522  0.00786111    -0.80400
O174        O  0.47941823  0.01827989  0.94829426    -0.80300
O175        O  0.47844955  0.96643796  0.06155820    -0.80300
O176        O  0.45539338  0.00767601  0.05235889    -0.80400
O177        O  0.45846373  0.97474676  0.95565703    -0.80300
O178        O  0.50565561  0.92596929  0.03194240    -0.80300
O179        O  0.50528974  0.06058216  0.97908437    -0.80400
Co180      Co  0.49521900  0.95908642  0.97350181     1.51500
Co181      Co  0.49256476  0.02574012  0.03686817     1.51700
Co182      Co  0.51614353  0.01696102  0.97253806     1.51600
Co183      Co  0.51591111  0.97010547  0.03842542     1.51500
O184        O  0.49767426  0.99273530  0.00511554    -1.42300
C185        C  0.48308896  0.91743929  0.01706491     1.09300
C186        C  0.48304846  0.06787379  0.99449895     1.09400
C187        C  0.45882492  0.99979671  0.94289323     1.09300
C188        C  0.45687260  0.98321146  0.06605803     1.09300
C189        C  0.27861301  0.76462697  0.76554647     0.02900
C190        C  0.28199327  0.78202782  0.73979542    -0.13200
C191        C  0.26111104  0.77993501  0.71667758     0.00400
C192        C  0.23719483  0.75942145  0.71948965    -0.11700
C193        C  0.23362554  0.74169023  0.74501452     0.02900
C194        C  0.25442023  0.74458001  0.76791480    -0.11200
H195        H  0.30020786  0.79805390  0.73838872     0.08500
H196        H  0.22149764  0.75686867  0.70154894     0.06000
H197        H  0.25169282  0.73130968  0.78783025     0.05900
C198        C  0.43529324  0.72266306  0.91651934     0.02900
C199        C  0.42011522  0.72878927  0.89026424    -0.13200
C200        C  0.40763327  0.75677252  0.88543795     0.00400
C201        C  0.41143621  0.77916176  0.90662878    -0.11700
C202        C  0.42741588  0.77385445  0.93288494     0.02900
C203        C  0.43904909  0.74523259  0.93775846    -0.11200
H204        H  0.41625384  0.71109536  0.87445444     0.08500
H205        H  0.40202110  0.80084786  0.90239412     0.06000
H206        H  0.45012350  0.74016492  0.95837637     0.05900
C207        C  0.22346244  0.94115761  0.55938534     0.02900
C208        C  0.22484970  0.92026815  0.58271956    -0.13200
C209        C  0.24499434  0.89674909  0.58253203     0.00400
C210        C  0.26615483  0.89594952  0.55993052    -0.11700
C211        C  0.26791489  0.91875910  0.53833359     0.02900
C212        C  0.24561066  0.94037686  0.53755823    -0.11200
H213        H  0.21019038  0.92211293  0.60138210     0.08500
H214        H  0.28157296  0.87775597  0.55946812     0.06000
H215        H  0.24596139  0.95696711  0.52024821     0.05900
C216        C  0.07684440  0.57424134  0.78113453     0.02900
C217        C  0.06983742  0.56562063  0.75192396    -0.13200
C218        C  0.08582349  0.57738246  0.72784401     0.00400
C219        C  0.10828631  0.59858866  0.73250605    -0.11700
C220        C  0.11578871  0.60757613  0.76100438     0.02900
C221        C  0.10053547  0.59504823  0.78531385    -0.11200
H222        H  0.05144998  0.55044856  0.74752865     0.08500
H223        H  0.12009665  0.60813725  0.71376490     0.06000
H224        H  0.10718805  0.60173706  0.80726021     0.05900
C225        C  0.75119212  0.27083465  0.24636745     0.02900
C226        C  0.72777143  0.24974391  0.24712142    -0.13200
C227        C  0.72432952  0.23037251  0.27143995     0.00400
C228        C  0.74460372  0.23195747  0.29486824    -0.11700
C229        C  0.76793460  0.25303806  0.29431392     0.02900
C230        C  0.77113256  0.27249470  0.27011080    -0.11200
H231        H  0.71204242  0.24868364  0.22904077     0.08500
H232        H  0.74198648  0.21709921  0.31369735     0.06000
H233        H  0.78919093  0.28877328  0.26968317     0.05900
C234        C  0.92781046  0.26902906  0.44949216     0.02900
C235        C  0.90453164  0.26738235  0.42877425    -0.13200
C236        C  0.89930296  0.24143208  0.41225765     0.00400
C237        C  0.91642720  0.21619394  0.41811507    -0.11700
C238        C  0.94069059  0.21721077  0.43774670     0.02900
C239        C  0.94629483  0.24418539  0.45296702    -0.11200
H240        H  0.89070415  0.28648673  0.42508785     0.08500
H241        H  0.91027919  0.19565882  0.40727191     0.06000
H242        H  0.96550097  0.24647418  0.46701693     0.05900
C243        C  0.77858065  0.42147345  0.08097487     0.02900
C244        C  0.75199189  0.43624947  0.07320965    -0.13200
C245        C  0.72628762  0.43309461  0.09100828     0.00400
C246        C  0.72812168  0.41613896  0.11721427    -0.11700
C247        C  0.75364928  0.40042639  0.12453631     0.02900
C248        C  0.77849136  0.40290176  0.10621768    -0.11200
H249        H  0.75113514  0.44971052  0.05332511     0.08500
H250        H  0.70900513  0.41403824  0.13154996     0.06000
H251        H  0.79790501  0.39017873  0.11183977     0.05900
C252        C  0.56948045  0.07323692  0.23403533     0.02900
C253        C  0.54782627  0.07000669  0.25587688    -0.13200
C254        C  0.55240175  0.08182373  0.28427769     0.00400
C255        C  0.57898373  0.09813495  0.28974561    -0.11700
C256        C  0.60043881  0.10203542  0.26750156     0.02900
C257        C  0.59561883  0.08924082  0.23982659    -0.11200
H258        H  0.52722201  0.05868360  0.25024831     0.08500
H259        H  0.58352423  0.10739294  0.31129212     0.06000
H260        H  0.61186188  0.09247459  0.22244995     0.05900
O261        O  0.94323325  0.49853728  0.97305377    -0.80300
O262        O  0.06564387  0.51720428  0.00704123    -0.80400
O263        O  0.01033151  0.53367224  0.04023950    -0.80400
O264        O  0.02136843  0.52893687  0.95780283    -0.80300
O265        O  0.04033957  0.50211285  0.05968429    -0.80400
O266        O  0.98957061  0.49906196  0.93486929    -0.80400
O267        O  0.07914672  0.50892417  0.96128076    -0.80300
O268        O  0.96112723  0.53444253  0.00151689    -0.80400
C269        C  0.94215308  0.52494616  0.98276942     1.09400
C270        C  0.08541785  0.51930305  0.98654962     1.09200
C271        C  0.02507603  0.52532798  0.06239929     1.09400
C272        C  0.00593855  0.52281862  0.93524358     1.09300
O273        O  0.00529010  0.43991971  0.95784864    -0.80300
O274        O  0.02210775  0.44491937  0.04017736    -0.80400
O275        O  0.94269123  0.47884910  0.02593736    -0.80300
O276        O  0.06435629  0.45674654  0.98793478    -0.80300
O277        O  0.08090405  0.46486725  0.03276627    -0.80400
O278        O  0.95697011  0.44195525  0.99743107    -0.80300
O279        O  0.03637206  0.47087841  0.93725115    -0.80300
O280        O  0.99053946  0.47513047  0.06186689    -0.80400
Co281      Co  0.97577947  0.46999416  0.96777578     1.51500
Co282      Co  0.04235043  0.47930264  0.02140959     1.51700
Co283      Co  0.97810760  0.50530786  0.03037692     1.51600
Co284      Co  0.04127484  0.49439212  0.97492525     1.51500
O285        O  0.00396799  0.48685824  0.99892532    -1.42300
C286        C  0.02043511  0.44736545  0.93554623     1.09300
C287        C  0.00621587  0.45149653  0.06218894     1.09400
C288        C  0.93981236  0.45226993  0.01705520     1.09300
C289        C  0.08563798  0.45531021  0.00693101     1.09300
C290        C  0.21872697  0.07169475  0.43515949     0.02900
C291        C  0.24339598  0.06393183  0.45224646    -0.13200
C292        C  0.27147919  0.07778643  0.44759592     0.00400
C293        C  0.27385250  0.10084617  0.42602599    -0.11700
C294        C  0.24895530  0.10956634  0.40935814     0.02900
C295        C  0.22205134  0.09382655  0.41339557    -0.11200
H296        H  0.24026303  0.04767238  0.46978454     0.08500
H297        H  0.29486332  0.11222852  0.42227144     0.06000
H298        H  0.20315387  0.09916251  0.39968322     0.05900
C299        C  0.26618272  0.23632425  0.28248788     0.02900
C300        C  0.24554562  0.25952854  0.28483396    -0.13200
C301        C  0.24088594  0.28010952  0.26160746     0.00400
C302        C  0.25966360  0.27910723  0.23685179    -0.11700
C303        C  0.28136972  0.25700557  0.23415705     0.02900
C304        C  0.28350803  0.23521618  0.25666291    -0.11200
H305        H  0.23294800  0.26178527  0.30487942     0.08500
H306        H  0.25703676  0.29532090  0.21938866     0.06000
H307        H  0.29811827  0.21672305  0.25350260     0.05900
C308        C  0.07013375  0.42340669  0.22295276     0.02900
C309        C  0.06225442  0.43632754  0.25008486    -0.13200
C310        C  0.08137716  0.43605094  0.27465882     0.00400
C311        C  0.10735876  0.41917246  0.27292712    -0.11700
C312        C  0.11456908  0.40395726  0.24705802     0.02900
C313        C  0.09656201  0.40699646  0.22188931    -0.11200
H314        H  0.04102694  0.44682953  0.25222048     0.08500
H315        H  0.12257603  0.41815041  0.29137687     0.06000
H316        H  0.10349976  0.39662730  0.20165363     0.05900
C317        C  0.44190928  0.21820337  0.07728610     0.02900
C318        C  0.45244112  0.24622493  0.06713037    -0.13200
C319        C  0.44105130  0.27278941  0.07867129     0.00400
C320        C  0.41858900  0.27101939  0.10015336    -0.11700
C321        C  0.40815957  0.24338619  0.11080546     0.02900
C322        C  0.41992084  0.21713175  0.09936937    -0.11200
H323        H  0.46963589  0.24735062  0.05052310     0.08500
H324        H  0.41015041  0.29122384  0.10974489     0.06000
H325        H  0.41170648  0.19579955  0.10761981     0.05900
C326        C  0.75352412  0.27307733  0.74418274     0.02900
C327        C  0.73707281  0.27054359  0.77022394    -0.13200
C328        C  0.71671564  0.24683450  0.77442038     0.00400
C329        C  0.71278668  0.22572043  0.75186882    -0.11700
C330        C  0.72885335  0.22803157  0.72527640     0.02900
C331        C  0.74924010  0.25205310  0.72170438    -0.11200
H332        H  0.74061221  0.28685824  0.78745453     0.08500
H333        H  0.69803020  0.20676196  0.75562084     0.06000
H334        H  0.76214554  0.25433994  0.70168166     0.05900
C335        C  0.93142139  0.41405478  0.73364939     0.02900
C336        C  0.94500905  0.41866235  0.76150716    -0.13200
C337        C  0.93660723  0.40142029  0.78642659     0.00400
C338        C  0.91437616  0.37927720  0.78284994    -0.11700
C339        C  0.89965957  0.37526977  0.75587521     0.02900
C340        C  0.90829847  0.39261732  0.73138846    -0.11200
H341        H  0.96171900  0.43610629  0.76384546     0.08500
H342        H  0.90806780  0.36501993  0.80123373     0.06000
H343        H  0.89776273  0.38839178  0.71031680     0.05900
C344        C  0.56780658  0.25558041  0.94052382     0.02900
C345        C  0.56872779  0.23098010  0.96034128    -0.13200
C346        C  0.58782017  0.20660418  0.95539885     0.00400
C347        C  0.60708075  0.20833000  0.93093503    -0.11700
C348        C  0.60492330  0.23135305  0.91018191     0.02900
C349        C  0.58502346  0.25435915  0.91470585    -0.11200
H350        H  0.55443034  0.23082297  0.97937280     0.08500
H351        H  0.62335224  0.19137817  0.92714085     0.06000
H352        H  0.58324914  0.27141359  0.89780628     0.05900
C353        C  0.71295171  0.07379226  0.56086262     0.02900
C354        C  0.73951123  0.05829453  0.55607439    -0.13200
C355        C  0.76428185  0.06188539  0.57473709     0.00400
C356        C  0.76267267  0.08258408  0.59767934    -0.11700
C357        C  0.73803992  0.10096724  0.60106748     0.02900
C358        C  0.71278249  0.09568189  0.58325405    -0.11200
H359        H  0.74117283  0.04372082  0.53731692     0.08500
H360        H  0.78090482  0.08469673  0.61309649     0.06000
H361        H  0.69326017  0.10875608  0.58681277     0.05900
C362        C  0.74879565  0.74036006  0.22143001     0.02900
C363        C  0.77282123  0.72101781  0.22263501    -0.13200
C364        C  0.78999563  0.71850481  0.24841014     0.00400
C365        C  0.78328615  0.73646625  0.27279588    -0.11700
C366        C  0.75932694  0.75622389  0.27181858     0.02900
C367        C  0.74203629  0.75757185  0.24609793    -0.11200
H368        H  0.77799999  0.70780091  0.20348058     0.08500
H369        H  0.79674566  0.73501552  0.29253098     0.06000
H370        H  0.72318801  0.77218048  0.24509221     0.05900
C371        C  0.70527957  0.91016857  0.42898287     0.02900
C372        C  0.73310639  0.92211280  0.43715416    -0.13200
C373        C  0.75918837  0.91378763  0.42281611     0.00400
C374        C  0.75722895  0.89431918  0.39888135    -0.11700
C375        C  0.72964594  0.88291583  0.38963505     0.02900
C376        C  0.70375304  0.89060897  0.40474681    -0.11200
H377        H  0.73462675  0.93825192  0.45473784     0.08500
H378        H  0.77719148  0.88737216  0.38782752     0.06000
H379        H  0.68276797  0.88071181  0.39801251     0.05900
C380        C  0.94347314  0.55688262  0.21550594     0.02900
C381        C  0.91964833  0.57677984  0.21496637    -0.13200
C382        C  0.90676784  0.58671554  0.24097282     0.00400
C383        C  0.91756506  0.57667920  0.26806916    -0.11700
C384        C  0.94135041  0.55682831  0.26974264     0.02900
C385        C  0.95436798  0.54690008  0.24318055    -0.11200
H386        H  0.91135910  0.58520845  0.19411265     0.08500
H387        H  0.90690144  0.58410578  0.28803624     0.06000
H388        H  0.97266967  0.53162761  0.24403136     0.05900
C389        C  0.60474249  0.78477135  0.05518907     0.02900
C390        C  0.58809496  0.75901324  0.04730721    -0.13200
C391        C  0.59155509  0.73167630  0.06231478     0.00400
C392        C  0.61065832  0.73054597  0.08659632    -0.11700
C393        C  0.62699085  0.75582053  0.09522335     0.02900
C394        C  0.62457686  0.78265323  0.07922513    -0.11200
H395        H  0.57206740  0.76005742  0.02956712     0.08500
H396        H  0.61373104  0.70967903  0.09834537     0.06000
H397        H  0.63802572  0.80171499  0.08579890     0.05900
C398        C  0.22229763  0.72787894  0.27313888     0.02900
C399        C  0.24276272  0.75167765  0.27081890    -0.13200
C400        C  0.26207869  0.75392197  0.24673178     0.00400
C401        C  0.26014911  0.73244288  0.22445932    -0.11700
C402        C  0.24133556  0.70717013  0.22716664     0.02900
C403        C  0.22208164  0.70539685  0.25171298    -0.11200
H404        H  0.24384893  0.76821836  0.28809887     0.08500
H405        H  0.27370060  0.73563815  0.20505054     0.06000
H406        H  0.20748640  0.68627932  0.25502283     0.05900
C407        C  0.40850463  0.92798013  0.27720080     0.02900
C408        C  0.38576561  0.90602055  0.27883183    -0.13200
C409        C  0.37330188  0.89384656  0.25331495     0.00400
C410        C  0.38367578  0.90313730  0.22577340    -0.11700
C411        C  0.40615111  0.92493369  0.22333021     0.02900
C412        C  0.41862162  0.93750613  0.24908468    -0.11200
H413        H  0.37805992  0.89771833  0.30002193     0.08500
H414        H  0.37411041  0.89335895  0.20602674     0.06000
H415        H  0.43609256  0.95429898  0.24719861     0.05900
C416        C  0.07003575  0.71962691  0.43661649     0.02900
C417        C  0.08702070  0.71514734  0.41103845    -0.13200
C418        C  0.09248458  0.73838765  0.39092641     0.00400
C419        C  0.08037049  0.76643081  0.39570011    -0.11700
C420        C  0.06330965  0.77189975  0.42096174     0.02900
C421        C  0.05829270  0.74834329  0.44135623    -0.11200
H422        H  0.09586661  0.69345614  0.40622533     0.08500
H423        H  0.08459225  0.78410162  0.37973681     0.06000
H424        H  0.04601927  0.75275849  0.46125251     0.05900
C425        C  0.29198432  0.54771885  0.07141594     0.02900
C426        C  0.29450342  0.57154735  0.09167857    -0.13200
C427        C  0.26964008  0.58836740  0.09922671     0.00400
C428        C  0.24267809  0.58249150  0.08498332    -0.11700
C429        C  0.23901498  0.55831925  0.06596533     0.02900
C430        C  0.26367695  0.54091284  0.05933044    -0.11200
H431        H  0.31560365  0.57707245  0.10176420     0.08500
H432        H  0.22400646  0.59670300  0.08919603     0.06000
H433        H  0.26047732  0.52170640  0.04531221     0.05900
O434        O  0.99207908  0.94852782  0.54721394    -0.80300
O435        O  0.00215431  0.03373284  0.53864586    -0.80400
O436        O  0.04641265  0.98331223  0.52846797    -0.80400
O437        O  0.92444363  0.01448355  0.51006302    -0.80300
O438        O  0.06035241  0.02992867  0.51903910    -0.80400
O439        O  0.94383395  0.98750623  0.54616883    -0.80400
O440        O  0.96989598  0.05453853  0.50838397    -0.80300
O441        O  0.02188840  0.93017456  0.51504960    -0.80400
C442        C  0.00837506  0.92744089  0.53927385     1.09400
C443        C  0.98629699  0.05575984  0.53143199     1.09200
C444        C  0.06523449  0.00510139  0.53160985     1.09400
C445        C  0.92439039  0.00536474  0.53662589     1.09300
O446        O  0.92549645  0.96145672  0.49200430    -0.80300
O447        O  0.04594716  0.00178994  0.46853222    -0.80400
O448        O  0.00339633  0.94734618  0.45864773    -0.80300
O449        O  0.98691958  0.03207803  0.45062457    -0.80300
O450        O  0.01823848  0.05233466  0.48121186    -0.80400
O451        O  0.97242762  0.92500180  0.49010374    -0.80300
O452        O  0.94011147  0.98965056  0.45443134    -0.80300
O453        O  0.06195690  0.95668162  0.47750903    -0.80400
Co454      Co  0.96032017  0.95776513  0.51846108     1.51500
Co455      Co  0.02261584  0.01516573  0.50539847     1.51700
Co456      Co  0.02351662  0.96801907  0.49139853     1.51600
Co457      Co  0.95736420  0.02059803  0.48109988     1.51500
O458        O  0.98561210  0.99007486  0.49874444    -1.42300
C459        C  0.92187565  0.97100487  0.46585116     1.09300
C460        C  0.06695247  0.98273753  0.46733615     1.09400
C461        C  0.98797568  0.92457437  0.46645805     1.09300
C462        C  0.00307303  0.05420156  0.45780256     1.09300
C463        C  0.99373132  0.89519788  0.45271785    -0.05400
C464        C  0.97500665  0.87038317  0.45853957    -0.05400
C465        C  0.98413140  0.84135017  0.45229724    -0.23500
C466        C  0.01256077  0.83642141  0.44095820     0.18700
C467        C  0.03114715  0.86125305  0.43418279     0.15900
C468        C  0.02141441  0.89035208  0.43948915    -0.18600
C469        C  0.05975719  0.85658965  0.42345835    -0.20400
C470        C  0.07002816  0.82767641  0.41961790    -0.13000
C471        C  0.05190970  0.80257996  0.42615688     0.03700
C472        C  0.02304200  0.80721766  0.43693744    -0.25100
H473        H  0.95380158  0.87334238  0.46918155     0.08800
H474        H  0.96949296  0.82265970  0.45767990     0.12400
H475        H  0.03644807  0.90909414  0.43542813     0.12300
H476        H  0.07443191  0.87536273  0.41842895     0.12100
H477        H  0.09246573  0.82496264  0.41181597     0.12600
H478        H  0.00871947  0.78818309  0.44200260     0.14600
C479        C  0.27054781  0.61122232  0.12289638    -0.05400
C480        C  0.29473480  0.63111960  0.12621518    -0.05400
C481        C  0.29429465  0.65321949  0.14790434    -0.23500
C482        C  0.26943043  0.65609736  0.16624300     0.18700
C483        C  0.24505655  0.63633038  0.16293088     0.15900
C484        C  0.24606988  0.61370172  0.14192081    -0.18600
C485        C  0.21975617  0.63976779  0.18030275    -0.20400
C486        C  0.21833336  0.66296139  0.20057075    -0.13000
C487        C  0.24266097  0.68262765  0.20486915     0.03700
C488        C  0.26844468  0.67848628  0.18768260    -0.25100
H489        H  0.31371219  0.62996866  0.11172166     0.08800
H490        H  0.31313385  0.66840150  0.14995873     0.12400
H491        H  0.22749000  0.59812602  0.14018653     0.12300
H492        H  0.20072223  0.62491814  0.17771920     0.12100
H493        H  0.19782025  0.66551419  0.21245192     0.12600
H494        H  0.28804490  0.69231120  0.19091584     0.14600
C495        C  0.20165314  0.72653063  0.29847169    -0.05400
C496        C  0.21268654  0.72947748  0.32730043    -0.05400
C497        C  0.19337662  0.73100634  0.35121794    -0.23500
C498        C  0.16264462  0.73014984  0.34666953     0.18700
C499        C  0.15121895  0.72683633  0.31776350     0.15900
C500        C  0.17084583  0.72458633  0.29385900    -0.18600
C501        C  0.12040003  0.72674412  0.31326748    -0.20400
C502        C  0.10116603  0.73046666  0.33709906    -0.13000
C503        C  0.11246875  0.73378738  0.36574101     0.03700
C504        C  0.14317112  0.73326222  0.37047340    -0.25100
H505        H  0.23635841  0.73091754  0.33124177     0.08800
H506        H  0.20248229  0.73353557  0.37321078     0.12400
H507        H  0.16223189  0.72263637  0.27159573     0.12300
H508        H  0.11121978  0.72429855  0.29130185     0.12100
H509        H  0.07747261  0.73079068  0.33324112     0.12600
H510        H  0.15184229  0.73597776  0.39264311     0.14600
C511        C  0.28568450  0.77742417  0.24561162    -0.05400
C512        C  0.31416000  0.77031891  0.23553699    -0.05400
C513        C  0.33693055  0.79173406  0.23510204    -0.23500
C514        C  0.33181216  0.82062182  0.24510280     0.18700
C515        C  0.30341908  0.82806976  0.25562694     0.15900
C516        C  0.28046381  0.80650992  0.25556799    -0.18600
C517        C  0.29856238  0.85693096  0.26614237    -0.20400
C518        C  0.32162333  0.87818717  0.26611962    -0.13000
C519        C  0.34960637  0.87097219  0.25518079     0.03700
C520        C  0.35464976  0.84219250  0.24473048    -0.25100
H521        H  0.31905172  0.74792390  0.22844186     0.08800
H522        H  0.35861926  0.78560874  0.22721909     0.12400
H523        H  0.25860224  0.81239422  0.26319106     0.12300
H524        H  0.27699303  0.86304272  0.27433444     0.12100
H525        H  0.31751387  0.90046635  0.27405637     0.12600
H526        H  0.37635110  0.83670404  0.23634369     0.14600
C527        C  0.78838320  0.92422800  0.43424775    -0.05400
C528        C  0.79295984  0.92513075  0.46488661    -0.05400
C529        C  0.81985400  0.93507886  0.47645369    -0.23500
C530        C  0.84288604  0.94404421  0.45761115     0.18700
C531        C  0.83897765  0.94329195  0.42676312     0.15900
C532        C  0.81162377  0.93321509  0.41516425    -0.18600
C533        C  0.86253707  0.95265686  0.40833022    -0.20400
C534        C  0.88974523  0.96232220  0.42052755    -0.13000
C535        C  0.89370958  0.96230101  0.45123293     0.03700
C536        C  0.86993598  0.95339964  0.46944886    -0.25100
H537        H  0.77575491  0.91776616  0.48003688     0.08800
H538        H  0.82271798  0.93551751  0.50018134     0.12400
H539        H  0.80829077  0.93275544  0.39150434     0.12300
H540        H  0.85996457  0.95236685  0.38458610     0.12100
H541        H  0.90771864  0.96920031  0.40607860     0.12600
H542        H  0.87243979  0.95355733  0.49314130     0.14600
C543        C  0.64609369  0.75369140  0.12150765    -0.05400
C544        C  0.63313033  0.74718765  0.14895041    -0.05400
C545        C  0.65076107  0.74315676  0.17389172    -0.23500
C546        C  0.68168742  0.74508671  0.17164586     0.18700
C547        C  0.69503133  0.75117900  0.14397993     0.15900
C548        C  0.67707061  0.75578490  0.11905127    -0.18600
C549        C  0.72605395  0.75232265  0.14179463    -0.20400
C550        C  0.74363504  0.74800147  0.16686818    -0.13000
C551        C  0.73044888  0.74277401  0.19449957     0.03700
C552        C  0.69945174  0.74105935  0.19665579    -0.25100
H553        H  0.60926048  0.74515645  0.15098526     0.08800
H554        H  0.64021898  0.73831096  0.19488542     0.12400
H555        H  0.68706213  0.76023739  0.09770611     0.12300
H556        H  0.73669097  0.75675323  0.12077577     0.12100
H557        H  0.76753598  0.74950661  0.16485205     0.12600
H558        H  0.68919058  0.73660824  0.21788834     0.14600
C559        C  0.81476845  0.69702546  0.24974925    -0.05400
C560        C  0.84188466  0.70500266  0.26315306    -0.05400
C561        C  0.86522944  0.68492202  0.26422610    -0.23500
C562        C  0.86196063  0.65648174  0.25183736     0.18700
C563        C  0.83489038  0.64822270  0.23812899     0.15900
C564        C  0.81147135  0.66843197  0.23734077    -0.18600
C565        C  0.83175525  0.61991419  0.22534359    -0.20400
C566        C  0.85528160  0.60002946  0.22601279    -0.13000
C567        C  0.88208531  0.60794519  0.23989820     0.03700
C568        C  0.88529596  0.63617570  0.25286525    -0.25100
H569        H  0.84520484  0.72698154  0.27247089     0.08800
H570        H  0.88590067  0.69169911  0.27462732     0.12400
H571        H  0.79059085  0.66180199  0.22725718     0.12300
H572        H  0.81117297  0.61321067  0.21472461     0.12100
H573        H  0.85248854  0.57829046  0.21600990     0.12600
H574        H  0.90607408  0.64236472  0.26343365     0.14600
C575        C  0.72870109  0.86174800  0.36496800    -0.05400
C576        C  0.72299036  0.87185793  0.33621335    -0.05400
C577        C  0.72673754  0.85284820  0.31222731    -0.23500
C578        C  0.73635068  0.82352945  0.31677451     0.18700
C579        C  0.74103992  0.81295733  0.34581874     0.15900
C580        C  0.73719008  0.83216154  0.36973455    -0.18600
C581        C  0.75044504  0.78366317  0.35041545    -0.20400
C582        C  0.75595716  0.76518090  0.32644957    -0.13000
C583        C  0.75236119  0.77564460  0.29736299     0.03700
C584        C  0.74216959  0.80490751  0.29279125    -0.25100
H585        H  0.71671446  0.89475891  0.33229443     0.08800
H586        H  0.72289878  0.86130150  0.29012115     0.12400
H587        H  0.74182673  0.82451655  0.39198610     0.12300
H588        H  0.75385202  0.77513480  0.37255702     0.12100
H589        H  0.76300183  0.74259957  0.33075354     0.12600
H590        H  0.73960356  0.81359374  0.27059070     0.14600
C591        C  0.89908856  0.01414269  0.55474788    -0.05400
C592        C  0.90032668  0.04124413  0.56991564    -0.05400
C593        C  0.87418301  0.05494917  0.57872566    -0.23500
C594        C  0.84642471  0.04200871  0.57186962     0.18700
C595        C  0.84505709  0.01399306  0.55791344     0.15900
C596        C  0.87143252  0.00009792  0.54970455    -0.18600
C597        C  0.81736592  0.00114891  0.55092861    -0.20400
C598        C  0.79124181  0.01627808  0.55701856    -0.13000
C599        C  0.79217460  0.04484108  0.56983670     0.03700
C600        C  0.82014050  0.05729650  0.57747615    -0.25100
H601        H  0.92138161  0.05275961  0.57318329     0.08800
H602        H  0.87564725  0.07640679  0.58950802     0.12400
H603        H  0.87040655  0.97950164  0.53751424     0.12300
H604        H  0.81590508  0.97957571  0.54034556     0.12100
H605        H  0.77031727  0.00548867  0.55157118     0.12600
H606        H  0.82178673  0.07947062  0.58668878     0.14600
C607        C  0.72516334  0.20463356  0.70205935    -0.05400
C608        C  0.69740822  0.19053967  0.69719626    -0.05400
C609        C  0.69410861  0.16768096  0.67648581    -0.23500
C610        C  0.71840342  0.15855040  0.65981156     0.18700
C611        C  0.74622871  0.17292098  0.66400987     0.15900
C612        C  0.74949147  0.19559779  0.68510794    -0.18600
C613        C  0.77046047  0.16431411  0.64710632    -0.20400
C614        C  0.76731651  0.14154546  0.62646940    -0.13000
C615        C  0.74000332  0.12623649  0.62250685     0.03700
C616        C  0.71543328  0.13523078  0.63918702    -0.25100
H617        H  0.67804909  0.19726197  0.70934604     0.08800
H618        H  0.67250767  0.15717163  0.67349918     0.12400
H619        H  0.77118856  0.20568357  0.68870812     0.12300
H620        H  0.79190290  0.17527997  0.64974616     0.12100
H621        H  0.78648445  0.13602145  0.61342764     0.12600
H622        H  0.69423511  0.12379947  0.63661785     0.14600
C623        C  0.70027500  0.24364012  0.80271931    -0.05400
C624        C  0.71465725  0.24913000  0.82977063    -0.05400
C625        C  0.69917963  0.24672587  0.85638598    -0.23500
C626        C  0.66894970  0.23894029  0.85649874     0.26300
C627        C  0.65429633  0.23314341  0.82945875     0.15900
C628        C  0.67005953  0.23535805  0.80283918    -0.18600
C629        C  0.62396003  0.22577548  0.82945594    -0.20400
C630        C  0.60812282  0.22483603  0.85588275    -0.13000
C631        C  0.62242332  0.23079222  0.88274290     0.03700
C632        C  0.65295166  0.23739928  0.88306549    -0.25100
H633        H  0.73801663  0.25507453  0.83036629     0.08800
H634        H  0.71081450  0.25119461  0.87686704     0.12400
H635        H  0.65861602  0.23137688  0.78214558     0.12300
H636        H  0.61237160  0.22122697  0.80896654     0.12100
H637        H  0.58458729  0.21966017  0.85541662     0.12600
H638        H  0.66394831  0.24213255  0.90384372     0.14600
C639        C  0.77774310  0.29557310  0.74229456    -0.05400
C640        C  0.77278488  0.32446646  0.73146237    -0.05400
C641        C  0.79588391  0.34585089  0.73112757    -0.23500
C642        C  0.82414651  0.33860018  0.74184525     0.18700
C643        C  0.82899609  0.30954689  0.75305551     0.15900
C644        C  0.80582270  0.28827293  0.75309595    -0.18600
C645        C  0.85688281  0.30225238  0.76432779    -0.20400
C646        C  0.87982984  0.32353654  0.76469435    -0.13000
C647        C  0.87545525  0.35248529  0.75361478     0.03700
C648        C  0.84754047  0.35986031  0.74195344    -0.25100
H649        H  0.75103586  0.33046373  0.72345177     0.08800
H650        H  0.79161902  0.36804753  0.72269403     0.12400
H651        H  0.80944899  0.26604623  0.76185954     0.12300
H652        H  0.86090029  0.28011859  0.77306601     0.12100
H653        H  0.90113847  0.31737829  0.77368464     0.12600
H654        H  0.84387725  0.38227184  0.73374274     0.14600
C655        C  0.30140230  0.25617534  0.20764856    -0.05400
C656        C  0.29210737  0.26713781  0.17993025    -0.05400
C657        C  0.31102809  0.26701984  0.15547846    -0.23500
C658        C  0.33948015  0.25515820  0.15778925     0.18700
C659        C  0.34886482  0.24320566  0.18509615     0.15900
C660        C  0.33015762  0.24436353  0.20983982    -0.18600
C661        C  0.37688335  0.23026562  0.18724691    -0.20400
C662        C  0.39554606  0.22946077  0.16270001    -0.13000
C663        C  0.38689570  0.24218180  0.13572989     0.03700
C664        C  0.35874235  0.25502695  0.13334536    -0.25100
H665        H  0.27001151  0.27554481  0.17679024     0.08800
H666        H  0.30323142  0.27591461  0.13463455     0.12400
H667        H  0.33831009  0.23629014  0.23084727     0.12300
H668        H  0.38439976  0.22078737  0.20793900     0.12100
H669        H  0.41718930  0.21962961  0.16496554     0.12600
H670        H  0.35190758  0.26478266  0.11252479     0.14600
C671        C  0.14090400  0.38459341  0.24669172    -0.05400
C672        C  0.16653458  0.39307202  0.23103170    -0.05400
C673        C  0.19161934  0.37499851  0.23155974    -0.23500
C674        C  0.19125342  0.34783219  0.24732509     0.18700
C675        C  0.16531485  0.33900142  0.26270003     0.15900
C676        C  0.14048806  0.35757490  0.26261451    -0.18600
C677        C  0.16447138  0.31157365  0.27768881    -0.20400
C678        C  0.18893757  0.29288148  0.27731893    -0.13000
C679        C  0.21532910  0.30131917  0.26258139     0.03700
C680        C  0.21620911  0.32924412  0.24773655    -0.25100
H681        H  0.16723614  0.41387251  0.21871587     0.08800
H682        H  0.21120194  0.38216416  0.21949373     0.12400
H683        H  0.12068781  0.35092177  0.27463308     0.12300
H684        H  0.14464726  0.30427877  0.28928847     0.12100
H685        H  0.18673524  0.27136120  0.28815082     0.12600
H686        H  0.23615989  0.33667108  0.23650457     0.14600
C687        C  0.18873550  0.05844260  0.44087096    -0.05400
C688        C  0.16418408  0.07729984  0.44148456    -0.05400
C689        C  0.13558366  0.06571769  0.44517748    -0.23500
C690        C  0.13080591  0.03495163  0.44850068     0.18700
C691        C  0.15514415  0.01556067  0.44861432     0.15900
C692        C  0.18410322  0.02744664  0.44486858    -0.18600
C693        C  0.14992455  0.98476283  0.45261686    -0.20400
C694        C  0.12100613  0.97351297  0.45715024    -0.13000
C695        C  0.09678891  0.99281995  0.45728789     0.03700
C696        C  0.10200216  0.02348888  0.45239308    -0.25100
H697        H  0.16714317  0.10124035  0.43910389     0.08800
H698        H  0.11715792  0.08089167  0.44546228     0.12400
H699        H  0.20284413  0.01266711  0.44451417     0.12300
H700        H  0.16824892  0.96947443  0.45291636     0.12100
H701        H  0.11769600  0.94988702  0.46140807     0.12600
H702        H  0.08371496  0.03884152  0.45296287     0.14600
C703        C  0.26885079  0.21266855  0.30629379    -0.05400
C704        C  0.29509820  0.19625516  0.30996637    -0.05400
C705        C  0.29690111  0.17307229  0.33086027    -0.23500
C706        C  0.27286426  0.16614373  0.34939020     0.18700
C707        C  0.24693211  0.18316588  0.34690902     0.15900
C708        C  0.24487330  0.20570386  0.32525676    -0.18600
C709        C  0.22320378  0.17726881  0.36600300    -0.20400
C710        C  0.22471517  0.15423450  0.38676446    -0.13000
C711        C  0.24967494  0.13583044  0.38862856     0.03700
C712        C  0.27409304  0.14241152  0.37011698    -0.25100
H713        H  0.31454372  0.20123837  0.29681439     0.08800
H714        H  0.31721576  0.16065130  0.33259857     0.12400
H715        H  0.22409585  0.21716408  0.32292551     0.12300
H716        H  0.20334035  0.19046651  0.36486289     0.12100
H717        H  0.20598909  0.15069501  0.40134400     0.12600
H718        H  0.29360440  0.12871537  0.37124869     0.14600
C719        C  0.94999099  0.40663248  0.81642717    -0.05400
C720        C  0.93272740  0.40120890  0.84188162    -0.05400
C721        C  0.94452219  0.40508785  0.87004974    -0.23500
C722        C  0.97364576  0.41557811  0.87376017     0.18700
C723        C  0.99131425  0.42194875  0.84875066     0.15900
C724        C  0.97957690  0.41699335  0.82022272    -0.18600
C725        C  0.02005126  0.43393909  0.85284945    -0.20400
C726        C  0.03049817  0.44071608  0.88128679    -0.13000
C727        C  0.01282447  0.43467838  0.90622691     0.03700
C728        C  0.98472838  0.42119296  0.90216171    -0.25100
H729        H  0.90965525  0.39444217  0.84024900     0.08800
H730        H  0.93048553  0.40064809  0.88900818     0.12400
H731        H  0.99346773  0.42128159  0.80115313     0.12300
H732        H  0.03396813  0.43921351  0.83402327     0.12100
H733        H  0.05198952  0.45160686  0.88371582     0.12600
H734        H  0.97047899  0.41703532  0.92102916     0.14600
C735        C  0.95583010  0.54718207  0.18655652    -0.05400
C736        C  0.93593334  0.54026470  0.16352897    -0.05400
C737        C  0.94587434  0.53631277  0.13478610    -0.23500
C738        C  0.97611578  0.53849368  0.12828068     0.18700
C739        C  0.99682368  0.54342332  0.15125427     0.15900
C740        C  0.98654289  0.54794208  0.18038666    -0.18600
C741        C  0.02727912  0.54364688  0.14444569    -0.20400
C742        C  0.03690251  0.53864018  0.11539060    -0.13000
C743        C  0.01624892  0.53481891  0.09240501     0.03700
C744        C  0.98587357  0.53517409  0.09914066    -0.25100
H745        H  0.91231383  0.53880686  0.16764730     0.08800
H746        H  0.92977197  0.53179122  0.11752404     0.12400
H747        H  0.00221769  0.55303459  0.19786891     0.12300
H748        H  0.04364285  0.54693926  0.16169515     0.12100
H749        H  0.06041441  0.53759337  0.11087320     0.12600
H750        H  0.96970548  0.53112591  0.08180739     0.14600
C751        C  0.01157742  0.43619198  0.09085648    -0.05400
C752        C  0.02764054  0.40959492  0.09241008    -0.05400
C753        C  0.03969366  0.39979985  0.11929711    -0.23500
C754        C  0.03690619  0.41705742  0.14486751     0.18700
C755        C  0.01987825  0.44313903  0.14361166     0.15900
C756        C  0.00652237  0.45189045  0.11704972    -0.18600
C757        C  0.01817005  0.46136420  0.16835995    -0.20400
C758        C  0.03430995  0.45477405  0.19372687    -0.13000
C759        C  0.05158618  0.42886064  0.19579617     0.03700
C760        C  0.05199435  0.40961945  0.17116900    -0.25100
H761        H  0.03212074  0.39716132  0.07257789     0.08800
H762        H  0.05266217  0.37968771  0.11968718     0.12400
H763        H  0.99452922  0.47261450  0.11632583     0.12300
H764        H  0.00542855  0.48160245  0.16765286     0.12100
H765        H  0.03390810  0.47096529  0.21124789     0.12600
H766        H  0.06457793  0.38930681  0.17197389     0.14600
C767        C  0.20877201  0.55118206  0.05454830    -0.05400
C768        C  0.18433014  0.55397507  0.07350564    -0.05400
C769        C  0.15550438  0.55030050  0.06308403    -0.23500
C770        C  0.15036588  0.54321073  0.03353932     0.18700
C771        C  0.17453214  0.53925458  0.01427064     0.15900
C772        C  0.20372570  0.54329118  0.02490433    -0.18600
C773        C  0.16889087  0.53131169  0.98483762    -0.20400
C774        C  0.13967168  0.52672552  0.97492138    -0.13000
C775        C  0.11562497  0.53027919  0.99420403     0.03700
C776        C  0.12131765  0.53919698  0.02332095    -0.25100
H777        H  0.18750972  0.55925611  0.09657460     0.08800
H778        H  0.13718706  0.55293087  0.07822062     0.12400
H779        H  0.22233763  0.54103042  0.01006500     0.12300
H780        H  0.18705705  0.52792053  0.96971389     0.12100
H781        H  0.13596900  0.51919460  0.95255627     0.12600
H782        H  0.10310973  0.54162533  0.03864729     0.14600
C783        C  0.80666944  0.42464594  0.06327763    -0.05400
C784        C  0.80626530  0.42699005  0.03229191    -0.05400
C785        C  0.83282774  0.42922828  0.01615732    -0.23500
C786        C  0.86046129  0.42905692  0.03059623     0.18700
C787        C  0.86115757  0.42615398  0.06161596     0.15900
C788        C  0.83450749  0.42432213  0.07762029    -0.18600
C789        C  0.88853104  0.42615540  0.07633411    -0.20400
C790        C  0.91490520  0.43078122  0.06071808    -0.13000
C791        C  0.91463959  0.43519960  0.03002130     0.03700
C792        C  0.88729932  0.43343210  0.01489757    -0.25100
H793        H  0.78541219  0.42678721  0.02043708     0.08800
H794        H  0.83173663  0.43134985  0.99237049     0.12400
H795        H  0.83556819  0.42326381  0.10147528     0.12300
H796        H  0.88947659  0.42401869  0.10013938     0.12100
H797        H  0.93546977  0.43321683  0.07294308     0.12600
H798        H  0.88669600  0.43807628  0.99141151     0.14600
C799        C  0.95964266  0.19011292  0.44241491    -0.05400
C800        C  0.97715012  0.18700126  0.46808217    -0.05400
C801        C  0.99335972  0.16124414  0.47326602    -0.23500
C802        C  0.99109109  0.13701016  0.45412643     0.18700
C803        C  0.97424519  0.13961568  0.42806797     0.15900
C804        C  0.95971634  0.16645285  0.42180690    -0.18600
C805        C  0.97100943  0.11480612  0.40948240    -0.20400
C806        C  0.98230824  0.08708888  0.41793946    -0.13000
C807        C  0.99806779  0.08403702  0.44451573     0.03700
C808        C  0.00373197  0.10961784  0.46165570    -0.25100
H809        H  0.97790841  0.20386721  0.48490018     0.08800
H810        H  0.00671689  0.15978807  0.49308617     0.12400
H811        H  0.94794242  0.16820546  0.40110242     0.12300
H812        H  0.95818241  0.11636599  0.38930643     0.12100
H813        H  0.97752758  0.06777082  0.40443107     0.12600
H814        H  0.01557587  0.10766664  0.48240427     0.14600
C815        C  0.62719647  0.12098697  0.27199817    -0.05400
C816        C  0.65547451  0.10966513  0.26655948    -0.05400
C817        C  0.68050391  0.12855343  0.26676487    -0.23500
C818        C  0.67750329  0.15923588  0.27158697     0.18700
C819        C  0.64907879  0.17073459  0.27727310     0.15900
C820        C  0.62422044  0.15143173  0.27802433    -0.18600
C821        C  0.64582795  0.20152180  0.28102671    -0.20400
C822        C  0.67038929  0.22082241  0.27872591    -0.13000
C823        C  0.69863354  0.20962420  0.27324562     0.03700
C824        C  0.70222798  0.17876028  0.27005530    -0.25100
H825        H  0.65804985  0.08625361  0.26157821     0.08800
H826        H  0.70204170  0.11933729  0.26225322     0.12400
H827        H  0.60233608  0.16030904  0.28164065     0.12300
H828        H  0.62422760  0.21071653  0.28527193     0.12100
H829        H  0.66743133  0.24457839  0.28142741     0.12600
H830        H  0.72409397  0.17014251  0.26578438     0.14600
C831        C  0.75455159  0.29154683  0.22106238    -0.05400
C832        C  0.76443119  0.28113332  0.19377431    -0.05400
C833        C  0.76759611  0.30070755  0.16974235    -0.23500
C834        C  0.76036712  0.33089028  0.17253546     0.18700
C835        C  0.75026361  0.34147767  0.19998001     0.15900
C836        C  0.74779264  0.32179955  0.22417032    -0.18600
C837        C  0.74229966  0.37143526  0.20260345    -0.20400
C838        C  0.74376928  0.39061399  0.17816405    -0.13000
C839        C  0.75372494  0.38036697  0.15077859     0.03700
C840        C  0.76241056  0.35050206  0.14823241    -0.25100
H841        H  0.76982124  0.25785271  0.19116075     0.08800
H842        H  0.77531985  0.29217051  0.14888960     0.12400
H843        H  0.74006233  0.32979270  0.24525630     0.12300
H844        H  0.73447913  0.37991867  0.22344194     0.12100
H845        H  0.73709124  0.41355005  0.18061341     0.12600
H846        H  0.76975939  0.34231342  0.12708811     0.14600
C847        C  0.78928214  0.25435662  0.31886869    -0.05400
C848        C  0.78305288  0.27074179  0.34425535    -0.05400
C849        C  0.80323766  0.27159271  0.36773560    -0.23500
C850        C  0.82988037  0.25597495  0.36610630     0.18700
C851        C  0.83620730  0.23955809  0.34042690     0.15900
C852        C  0.81586267  0.23885760  0.31699204    -0.18600
C853        C  0.86279514  0.22414215  0.33857010    -0.20400
C854        C  0.88302825  0.22492083  0.36186443    -0.13000
C855        C  0.87702207  0.24079740  0.38781603     0.03700
C856        C  0.85024071  0.25639399  0.38966485    -0.25100
H857        H  0.76254562  0.28281457  0.34585812     0.08800
H858        H  0.79799582  0.28438483  0.38716205     0.12400
H859        H  0.82056619  0.22618352  0.29731367     0.12300
H860        H  0.86808290  0.21162938  0.31896524     0.12100
H861        H  0.90370113  0.21336505  0.35929834     0.12600
H862        H  0.84500525  0.26853792  0.40949020     0.14600
C863        C  0.05934044  0.56175930  0.80686433    -0.05400
C864        C  0.04572497  0.53317957  0.80543909    -0.05400
C865        C  0.02951237  0.52133549  0.82923775    -0.23500
C866        C  0.02702062  0.53735537  0.85550709     0.18700
C867        C  0.04044526  0.56599198  0.85746049     0.15900
C868        C  0.05602668  0.57816374  0.83311928    -0.18600
C869        C  0.03884805  0.58162335  0.88408822    -0.20400
C870        C  0.02549386  0.56839917  0.90891530    -0.13000
C871        C  0.01271266  0.53957213  0.90753348     0.03700
C872        C  0.01267187  0.52459524  0.88030909    -0.25100
H873        H  0.04808358  0.51939053  0.78614909     0.08800
H874        H  0.01961128  0.49922538  0.82735621     0.12400
H875        H  0.06560033  0.60040461  0.83484174     0.12300
H876        H  0.04907394  0.60357282  0.88610130     0.12100
H877        H  0.02626804  0.58025516  0.92963680     0.12600
H878        H  0.00355703  0.50209565  0.87900435     0.14600
C879        C  0.09276765  0.99925077  0.54800149    -0.05400
C880        C  0.09228839  0.97648359  0.56942908    -0.05400
C881        C  0.11837990  0.96293238  0.57823607    -0.23500
C882        C  0.14542989  0.97176976  0.56557034     0.18700
C883        C  0.14667353  0.99640178  0.54600234     0.15900
C884        C  0.12021317  0.01033867  0.53748323    -0.18600
C885        C  0.17405235  0.00514483  0.53381061    -0.20400
C886        C  0.19949586  0.98853901  0.53959504    -0.13000
C887        C  0.19799189  0.96230608  0.55710308     0.03700
C888        C  0.17071334  0.95488343  0.57067370    -0.25100
H889        H  0.07140389  0.96762880  0.57778739     0.08800
H890        H  0.11714305  0.94431732  0.59360333     0.12400
H891        H  0.12074975  0.02761476  0.52061756     0.12300
H892        H  0.17564341  0.02427935  0.51910574     0.12100
H893        H  0.22006525  0.99613200  0.52967470     0.12600
H894        H  0.16813192  0.93470607  0.58368839     0.14600
C895        C  0.20801477  0.72040136  0.74792024    -0.05400
C896        C  0.17953639  0.72880438  0.73877376    -0.05400
C897        C  0.15546721  0.70881408  0.74096527    -0.23500
C898        C  0.15937767  0.67997678  0.75236963     0.18700
C899        C  0.18776110  0.67135376  0.76212785     0.15900
C900        C  0.21186699  0.69159278  0.75984490    -0.18600
C901        C  0.19161555  0.64244391  0.77353112    -0.20400
C902        C  0.16770353  0.62209790  0.77471360    -0.13000
C903        C  0.13965347  0.63032019  0.76445849     0.03700
C904        C  0.13554509  0.65938015  0.75352060    -0.25100
H905        H  0.17583583  0.75098720  0.73003327     0.08800
H906        H  0.13383267  0.71584924  0.73355168     0.12400
H907        H  0.23372121  0.68471122  0.76676434     0.12300
H908        H  0.21322734  0.63539481  0.78100983     0.12100
H909        H  0.17131714  0.59958104  0.78259498     0.12600
H910        H  0.11396728  0.66558975  0.74515899     0.14600
C911        C  0.26344232  0.79994850  0.69021273    -0.05400
C912        C  0.29118758  0.80784186  0.67797606    -0.05400
C913        C  0.29326325  0.82763303  0.65394534    -0.23500
C914        C  0.26764212  0.83992402  0.64156363     0.18700
C915        C  0.23965472  0.83163523  0.65325111     0.15900
C916        C  0.23774674  0.81190597  0.67740850    -0.18600
C917        C  0.21395622  0.84352618  0.64086336    -0.20400
C918        C  0.21588352  0.86393406  0.61753265    -0.13000
C919        C  0.24357701  0.87330831  0.60617285     0.03700
C920        C  0.26946833  0.86072161  0.61811471    -0.25100
H921        H  0.31133870  0.79866140  0.68695852     0.08800
H922        H  0.31495642  0.83348541  0.64518011     0.12400
H923        H  0.21617956  0.80652796  0.68672846     0.12300
H924        H  0.19227968  0.83716171  0.64934245     0.12100
H925        H  0.19550707  0.87246111  0.60837494     0.12600
H926        H  0.29103733  0.86771497  0.60983344     0.14600
C927        C  0.29975348  0.76763684  0.79053644    -0.05400
C928        C  0.28896593  0.77126231  0.81930944    -0.05400
C929        C  0.30829686  0.77188580  0.84339645    -0.23500
C930        C  0.33879017  0.76835965  0.83923665     0.18700
C931        C  0.35002820  0.76504966  0.81035973     0.15900
C932        C  0.33046982  0.76522861  0.78612156    -0.18600
C933        C  0.38046787  0.76051355  0.80639813    -0.20400
C934        C  0.39937295  0.75834174  0.83082130    -0.13000
C935        C  0.38830582  0.76151989  0.85949936     0.03700
C936        C  0.35807568  0.76707097  0.86354694    -0.25100
H937        H  0.26541318  0.77339253  0.82315271     0.08800
H938        H  0.29930233  0.77441182  0.86535641     0.12400
H939        H  0.33893013  0.76215863  0.76400845     0.12300
H940        H  0.38950411  0.75783390  0.78448293     0.12100
H941        H  0.42263110  0.75392773  0.82740175     0.12600
H942        H  0.34941217  0.76908331  0.88572249     0.14600
C943        C  0.57568232  0.92055672  0.01068088    -0.05400
C944        C  0.58943824  0.92170068  0.03858549    -0.05400
C945        C  0.59995994  0.89577398  0.05209447    -0.23500
C946        C  0.59738749  0.86821127  0.03780914     0.18700
C947        C  0.58642237  0.86729014  0.00862911     0.15900
C948        C  0.57579629  0.89344268  0.99517434    -0.18600
C949        C  0.58455590  0.83988569  0.99406992    -0.20400
C950        C  0.59195254  0.81348104  0.00873277    -0.13000
C951        C  0.60072343  0.81361495  0.03862149     0.03700
C952        C  0.60422125  0.84147273  0.05268893    -0.25100
H953        H  0.58977417  0.94213876  0.05116779     0.08800
H954        H  0.60872581  0.89706531  0.07432489     0.12400
H955        H  0.56532375  0.89211239  0.97366536     0.12300
H956        H  0.57669898  0.83875302  0.97150268     0.12100
H957        H  0.59029457  0.79284787  0.99657282     0.12600
H958        H  0.61081306  0.84245473  0.07563365     0.14600
C959        C  0.43138836  0.79833061  0.95488770    -0.05400
C960        C  0.40822407  0.81829770  0.95981905    -0.05400
C961        C  0.41281776  0.84396394  0.97659925    -0.23500
C962        C  0.44068925  0.85026868  0.98897574     0.18700
C963        C  0.46364765  0.82947114  0.98613725     0.15900
C964        C  0.45880191  0.80346325  0.96926242    -0.18600
C965        C  0.49150080  0.83601011  0.99878483    -0.20400
C966        C  0.49712969  0.86379432  0.01199440    -0.13000
C967        C  0.47504677  0.88549287  0.01273089     0.03700
C968        C  0.44645288  0.87791571  0.00242045    -0.25100
H969        H  0.38661730  0.81450198  0.94994927     0.08800
H970        H  0.39484034  0.85946492  0.97894488     0.12400
H971        H  0.47687381  0.78829173  0.96583134     0.12300
H972        H  0.50937869  0.82031122  0.99708586     0.12100
H973        H  0.51937006  0.86911842  0.01957406     0.12600
H974        H  0.42923026  0.89446832  0.00284702     0.14600
C975        C  0.54471034  0.99875310  0.11381875    -0.05400
C976        C  0.55478252  0.97890479  0.13556743    -0.05400
C977        C  0.56279532  0.98957698  0.16357396    -0.23500
C978        C  0.56062712  0.02011684  0.17009217     0.18700
C979        C  0.55153373  0.04018068  0.14782997     0.15900
C980        C  0.54412894  0.02945830  0.12000431    -0.18600
C981        C  0.54912726  0.07066097  0.15385764    -0.20400
C982        C  0.55528542  0.08128341  0.18199033    -0.13000
C983        C  0.56389285  0.06158572  0.20437902     0.03700
C984        C  0.56676976  0.03103895  0.19845627    -0.25100
H985        H  0.55556574  0.95521126  0.13123938     0.08800
H986        H  0.56995321  0.97389626  0.18032965     0.12400
H987        H  0.53695899  0.04524833  0.10331026     0.12300
H988        H  0.54209349  0.08621813  0.13690682     0.12100
H989        H  0.55300373  0.10483736  0.18646311     0.12600
H990        H  0.57351118  0.01593941  0.21592604     0.14600
C991        C  0.43719642  0.97554318  0.09127973    -0.05400
C992        C  0.42319206  0.99808543  0.10722020    -0.05400
C993        C  0.41373344  0.99285386  0.13633234    -0.23500
C994        C  0.41858877  0.96516056  0.15012336     0.18700
C995        C  0.43116958  0.94197187  0.13362215     0.15900
C996        C  0.43957781  0.94706979  0.10428282    -0.18600
C997        C  0.43649776  0.91434945  0.14706054    -0.20400
C998        C  0.42948216  0.90963060  0.17663975    -0.13000
C999        C  0.41707149  0.93239001  0.19342243     0.03700
C1000       C  0.41157161  0.96022651  0.18010375    -0.25100
H1001       H  0.42154718  0.02036957  0.09802325     0.08800
H1002       H  0.40398036  0.01089752  0.14850363     0.12400
H1003       H  0.45039671  0.92944168  0.09236720     0.12300
H1004       H  0.44618668  0.89638247  0.13470323     0.12100
H1005       H  0.43328887  0.88790741  0.18644335     0.12600
H1006       H  0.40136365  0.97762286  0.19283885     0.14600
C1007       C  0.45399044  0.18985126  0.06561693    -0.05400
C1008       C  0.46031233  0.16642313  0.08530675    -0.05400
C1009       C  0.46854409  0.13856151  0.07493991    -0.23500
C1010       C  0.47064731  0.13342696  0.04459314     0.18700
C1011       C  0.46588650  0.15700919  0.02438910     0.15900
C1012       C  0.45771463  0.18524072  0.03505886    -0.18600
C1013       C  0.46859971  0.15151301  0.99395584    -0.20400
C1014       C  0.47504883  0.12276518  0.98372384    -0.13000
C1015       C  0.47838082  0.09907675  0.00378411     0.03700
C1016       C  0.47669743  0.10481444  0.03418512    -0.25100
H1017       H  0.45839241  0.16954251  0.10887581     0.08800
H1018       H  0.47260892  0.12078217  0.09070460     0.12400
H1019       H  0.45303622  0.20313457  0.01961481     0.12300
H1020       H  0.46526047  0.16932668  0.97806437     0.12100
H1021       H  0.47650555  0.11883813  0.96025077     0.12600
H1022       H  0.47983310  0.08671909  0.04987028     0.14600
C1023       C  0.57340062  0.06992561  0.00552904    -0.05400
C1024       C  0.59026339  0.06992471  0.97948607    -0.05400
C1025       C  0.59892008  0.09680037  0.96596067    -0.23500
C1026       C  0.59118015  0.12414053  0.97838462     0.18700
C1027       C  0.57753579  0.12447464  0.00629614     0.15900
C1028       C  0.56915528  0.09732421  0.01998684    -0.18600
C1029       C  0.57039676  0.15193476  0.01883840    -0.20400
C1030       C  0.57511281  0.17867286  0.00312855    -0.13000
C1031       C  0.58652953  0.17861503  0.97417143     0.03700
C1032       C  0.59516224  0.15089458  0.96246261    -0.25100
H1033       H  0.59409673  0.04933183  0.96788831     0.08800
H1034       H  0.60995476  0.09615989  0.94476423     0.12400
H1035       H  0.55641191  0.09777809  0.04023278     0.12300
H1036       H  0.56029926  0.15269242  0.04048470     0.12100
H1037       H  0.56920869  0.19926175  0.01368272     0.12600
H1038       H  0.60335268  0.14942122  0.94013236     0.14600
C1039       C  0.05374356  0.18077114  0.56083554    -0.05400
C1040       C  0.07277790  0.15645905  0.56451183    -0.05400
C1041       C  0.06207936  0.12716416  0.56319642    -0.23500
C1042       C  0.03210869  0.12125600  0.55741855     0.18700
C1043       C  0.01253215  0.14519141  0.55316120     0.15900
C1044       C  0.02343909  0.17494213  0.55503781    -0.18600
C1045       C  0.98272982  0.13875830  0.54611078    -0.20400
C1046       C  0.97317412  0.10919244  0.54116499    -0.13000
C1047       C  0.99285895  0.08540495  0.54458368     0.03700
C1048       C  0.02194164  0.09170172  0.55413591    -0.25100
H1049       H  0.09622679  0.16013931  0.56857587     0.08800
H1050       H  0.07744419  0.10907038  0.56615889     0.12400
H1051       H  0.00846204  0.19338996  0.55222004     0.12300
H1052       H  0.96728271  0.15668857  0.54265783     0.12100
H1053       H  0.95078228  0.10502004  0.53336063     0.12600
H1054       H  0.03759895  0.07374803  0.55632654     0.14600
C1055       C  0.41615289  0.05620071  0.81941930    -0.05400
C1056       C  0.42405492  0.07901713  0.83915435    -0.05400
C1057       C  0.43015395  0.07262892  0.86863801    -0.23500
C1058       C  0.42845058  0.04320720  0.87913313     0.18700
C1059       C  0.41973469  0.01995968  0.85988114     0.15900
C1060       C  0.41374629  0.02657392  0.82993924    -0.18600
C1061       C  0.41826097  0.99052663  0.87082252    -0.20400
C1062       C  0.42768418  0.98401128  0.89968331    -0.13000
C1063       C  0.43851837  0.00685301  0.91812291     0.03700
C1064       C  0.43716246  0.03657934  0.90811810    -0.25100
H1065       H  0.42605358  0.10192886  0.83151828     0.08800
H1066       H  0.43687001  0.09068303  0.88310175     0.12400
H1067       H  0.40743174  0.00887367  0.81489805     0.12300
H1068       H  0.41138951  0.97236317  0.85658364     0.12100
H1069       H  0.42883424  0.96089379  0.90664421     0.12600
H1070       H  0.44546128  0.05443855  0.92207560     0.14600
C1071       C  0.11561838  0.44660117  0.99686508    -0.05400
C1072       C  0.13810138  0.43770786  0.01639797    -0.05400
C1073       C  0.16700460  0.43275180  0.00600188    -0.23500
C1074       C  0.17417138  0.43780956  0.97613031     0.18700
C1075       C  0.15177438  0.44772370  0.95676531     0.15900
C1076       C  0.12278521  0.45111274  0.96698628    -0.18600
C1077       C  0.15858014  0.45428400  0.92732503    -0.20400
C1078       C  0.18694103  0.44953868  0.91656902    -0.13000
C1079       C  0.20914366  0.43781713  0.93482829     0.03700
C1080       C  0.20294614  0.43274884  0.96498465    -0.25100
H1081       H  0.13333386  0.43462358  0.03962316     0.08800
H1082       H  0.18381590  0.42539803  0.02137400     0.12400
H1083       H  0.10594842  0.45849190  0.95163944     0.12300
H1084       H  0.14176501  0.46254534  0.91239917     0.12100
H1085       H  0.19130366  0.45389403  0.89343506     0.12600
H1086       H  0.21992781  0.42374677  0.97926018     0.14600
C1087       C  0.21052573  0.26199055  0.68471076    -0.05400
C1088       C  0.21581143  0.27891672  0.65906142    -0.05400
C1089       C  0.19442704  0.27989266  0.63666300    -0.23500
C1090       C  0.16739317  0.26415341  0.63982470     0.18700
C1091       C  0.16168901  0.24789965  0.66613544     0.15900
C1092       C  0.18335992  0.24678028  0.68828920    -0.18600
C1093       C  0.13461061  0.23258929  0.66966617    -0.20400
C1094       C  0.11368389  0.23249150  0.64699985    -0.13000
C1095       C  0.11950342  0.24737788  0.62013591     0.03700
C1096       C  0.14628044  0.26374653  0.61695612    -0.25100
H1097       H  0.23676668  0.29074202  0.65611564     0.08800
H1098       H  0.19917482  0.29259592  0.61674081     0.12400
H1099       H  0.17933243  0.23376844  0.70821035     0.12300
H1100       H  0.12974901  0.22034958  0.68984603     0.12100
H1101       H  0.09298013  0.22035268  0.65037717     0.12600
H1102       H  0.15118115  0.27520597  0.59634234     0.14600
C1103       C  0.28779322  0.20045169  0.73339444    -0.05400
C1104       C  0.27360042  0.17248389  0.73654742    -0.05400
C1105       C  0.29024308  0.14679275  0.74112507    -0.23500
C1106       C  0.32132221  0.14871983  0.74222102     0.18700
C1107       C  0.33571405  0.17674252  0.73791420     0.15900
C1108       C  0.31886258  0.20237195  0.73371559    -0.18600
C1109       C  0.36673730  0.17876339  0.73828587    -0.20400
C1110       C  0.38341856  0.15332906  0.74326319    -0.13000
C1111       C  0.36937119  0.12560798  0.74831003     0.03700
C1112       C  0.33831014  0.12327555  0.74772177    -0.25100
H1113       H  0.24962311  0.17070250  0.73640084     0.08800
H1114       H  0.27882461  0.12551195  0.74415947     0.12400
H1115       H  0.32985267  0.22395050  0.73100157     0.12300
H1116       H  0.37808676  0.20002345  0.73484225     0.12100
H1117       H  0.40739449  0.15527634  0.74352716     0.12600
H1118       H  0.32753021  0.10173400  0.75133588     0.14600
C1119       C  0.26503520  0.30095850  0.77388672    -0.05400
C1120       C  0.29229926  0.30302886  0.78910132    -0.05400
C1121       C  0.29610430  0.32237161  0.81282444    -0.23500
C1122       C  0.27316630  0.34103348  0.82129174     0.18700
C1123       C  0.24628241  0.34057953  0.80532452     0.15900
C1124       C  0.24217859  0.32029394  0.78210059    -0.18600
C1125       C  0.22384976  0.36024876  0.81306971    -0.20400
C1126       C  0.22790365  0.37988910  0.83661157    -0.13000
C1127       C  0.25417765  0.37978297  0.85350142     0.03700
C1128       C  0.27673916  0.36010052  0.84549272    -0.25100
H1129       H  0.31092814  0.28963432  0.78284658     0.08800
H1130       H  0.31711608  0.32284096  0.82445507     0.12400
H1131       H  0.22086242  0.31914939  0.77112310     0.12300
H1132       H  0.20321907  0.36059016  0.80080183     0.12100
H1133       H  0.21038472  0.39528332  0.84141387     0.12600
H1134       H  0.29699795  0.35915004  0.85830467     0.14600
C1135       C  0.91602494  0.54244182  0.97343132    -0.05400
C1136       C  0.90435641  0.56515329  0.99087542    -0.05400
C1137       C  0.87638798  0.57694530  0.98431603    -0.23500
C1138       C  0.85956012  0.56597385  0.96041099     0.18700
C1139       C  0.87158948  0.54369197  0.94239338     0.15900
C1140       C  0.89971544  0.53260615  0.94867640    -0.18600
C1141       C  0.85495274  0.53203505  0.91884847    -0.20400
C1142       C  0.82645180  0.54218941  0.91322157    -0.13000
C1143       C  0.81419379  0.56433042  0.93080657     0.03700
C1144       C  0.83081811  0.57636782  0.95436104    -0.25100
H1145       H  0.91619349  0.57281847  0.01027251     0.08800
H1146       H  0.86754524  0.59398424  0.99844300     0.12400
H1147       H  0.90836200  0.51512753  0.93488666     0.12300
H1148       H  0.86387110  0.51481336  0.90496475     0.12100
H1149       H  0.81388069  0.53280902  0.89501909     0.12600
H1150       H  0.82127301  0.59345333  0.96800076     0.14600
C1151       C  0.96876008  0.79036514  0.56394856    -0.05400
C1152       C  0.98219819  0.79284090  0.53601186    -0.05400
C1153       C  0.99720631  0.81914482  0.52749479    -0.23500
C1154       C  0.99794044  0.84399230  0.54615405     0.18700
C1155       C  0.98587452  0.84139999  0.57472442     0.15900
C1156       C  0.97257042  0.81431888  0.58380940    -0.18600
C1157       C  0.98549372  0.86651516  0.59305160    -0.20400
C1158       C  0.99466942  0.89451956  0.58225470    -0.13000
C1159       C  0.00558601  0.89761719  0.55342613     0.03700
C1160       C  0.00860785  0.87187587  0.53603099    -0.25100
H1161       H  0.98005291  0.77505431  0.52010668     0.08800
H1162       H  0.00687526  0.82055939  0.50571707     0.12400
H1163       H  0.96385619  0.81258979  0.60600024     0.12300
H1164       H  0.97632165  0.86487516  0.61508211     0.12100
H1165       H  0.99205024  0.91396156  0.59597562     0.12600
H1166       H  0.01669041  0.87394559  0.51359351     0.14600
C1167       C  0.75176686  0.69685136  0.78144557    -0.05400
C1168       C  0.76326774  0.66886797  0.77400983    -0.05400
C1169       C  0.76583924  0.64620955  0.79508565    -0.23500
C1170       C  0.75616318  0.65055057  0.82398967     0.18700
C1171       C  0.74332409  0.67791155  0.83170522     0.15900
C1172       C  0.74155759  0.70100568  0.81055240    -0.18600
C1173       C  0.73264219  0.68167820  0.86051605    -0.20400
C1174       C  0.73493288  0.65861738  0.88142736    -0.13000
C1175       C  0.74847958  0.63177704  0.87400598     0.03700
C1176       C  0.75903344  0.62786405  0.84525491    -0.25100
H1177       H  0.77026119  0.66421172  0.75174501     0.08800
H1178       H  0.77525082  0.62516671  0.78868532     0.12400
H1179       H  0.73281635  0.72228517  0.81706561     0.12300
H1180       H  0.72250665  0.70237720  0.86684071     0.12100
H1181       H  0.72658098  0.66186465  0.90352170     0.12600
H1182       H  0.76921445  0.60700280  0.83944450     0.14600
C1183       C  0.79265398  0.74473925  0.68989678    -0.05400
C1184       C  0.78680524  0.72523618  0.66646496    -0.05400
C1185       C  0.80740039  0.72202758  0.64377965    -0.23500
C1186       C  0.83439764  0.73803602  0.64435250     0.18700
C1187       C  0.84046926  0.75776766  0.66790378     0.15900
C1188       C  0.81947051  0.76110741  0.69050540    -0.18600
C1189       C  0.86764094  0.77337776  0.66867257    -0.20400
C1190       C  0.88870295  0.76929217  0.64656736    -0.13000
C1191       C  0.88301143  0.74972707  0.62294133     0.03700
C1192       C  0.85553323  0.73432783  0.62198977    -0.25100
H1193       H  0.76636060  0.71218751  0.66597557     0.08800
H1194       H  0.80239598  0.70669051  0.62601366     0.12400
H1195       H  0.82418898  0.77583206  0.70885913     0.12300
H1196       H  0.87280418  0.78845436  0.68661669     0.12100
H1197       H  0.90978963  0.78105647  0.64837065     0.12600
H1198       H  0.85048295  0.71948562  0.60382939     0.14600
C1199       C  0.58151514  0.96052767  0.79594501    -0.05400
C1200       C  0.56809510  0.98867165  0.79392664    -0.05400
C1201       C  0.55820497  0.00331297  0.81926598    -0.23500
C1202       C  0.56163668  0.99027352  0.84729177     0.18700
C1203       C  0.57574203  0.96241537  0.84958952     0.15900
C1204       C  0.58536535  0.94780301  0.82414667    -0.18600
C1205       C  0.57929705  0.94900409  0.87728709    -0.20400
C1206       C  0.56788374  0.96230326  0.90235480    -0.13000
C1207       C  0.55281412  0.98940691  0.90048311     0.03700
C1208       C  0.55036769  0.00387311  0.87292315    -0.25100
H1209       H  0.56517835  0.99947019  0.77272897     0.08800
H1210       H  0.54758396  0.02468456  0.81688020     0.12400
H1211       H  0.59492961  0.92591705  0.82638495     0.12300
H1212       H  0.59015965  0.92774154  0.87949159     0.12100
H1213       H  0.56996495  0.95078289  0.92334491     0.12600
H1214       H  0.53836953  0.02453503  0.87120881     0.14600
C1215       C  0.64536034  0.88449270  0.74666611    -0.05400
C1216       C  0.67502855  0.89364625  0.74290004    -0.05400
C1217       C  0.69730995  0.87243994  0.74023045    -0.23500
C1218       C  0.69020452  0.84178877  0.74142184     0.18700
C1219       C  0.66039936  0.83254341  0.74591975     0.15900
C1220       C  0.63822564  0.85393537  0.74841569    -0.18600
C1221       C  0.65317464  0.80203762  0.74742127    -0.20400
C1222       C  0.67522690  0.78078748  0.74462779    -0.13000
C1223       C  0.70495662  0.78955864  0.74008006     0.03700
C1224       C  0.71226375  0.82021322  0.73823043    -0.25100
H1225       H  0.68077226  0.91715522  0.74113008     0.08800
H1226       H  0.72001807  0.87999530  0.73685466     0.12400
H1227       H  0.61525268  0.84688396  0.75112049     0.12300
H1228       H  0.63043145  0.79458760  0.75080872     0.12100
H1229       H  0.66901765  0.75736156  0.74588456     0.12600
H1230       H  0.73516239  0.82722384  0.73499124     0.14600
C1231       C  0.51527242  0.39479282  0.04326107    -0.05400
C1232       C  0.53530719  0.37157130  0.04770088    -0.05400
C1233       C  0.52499577  0.34296951  0.05597717    -0.23500
C1234       C  0.49444683  0.33701799  0.05924506     0.18700
C1235       C  0.47428775  0.36039840  0.05505453     0.15900
C1236       C  0.48481157  0.38902721  0.04768126    -0.18600
C1237       C  0.44376834  0.35470782  0.05753175    -0.20400
C1238       C  0.43317979  0.32610334  0.06443471    -0.13000
C1239       C  0.45284924  0.30258059  0.06922438     0.03700
C1240       C  0.48359493  0.30818055  0.06637302    -0.25100
H1241       H  0.55879729  0.37533168  0.04404781     0.08800
H1242       H  0.54082939  0.32532924  0.05905347     0.12400
H1243       H  0.46891135  0.40651759  0.04390391     0.12300
H1244       H  0.42803739  0.37238590  0.05402189     0.12100
H1245       H  0.40945540  0.32234528  0.06606078     0.12600
H1246       H  0.49902307  0.29030086  0.07021643     0.14600
C1247       C  0.51280907  0.38996877  0.95304374    -0.05400
C1248       C  0.53757788  0.39021992  0.93424465    -0.05400
C1249       C  0.55237991  0.36406236  0.92785837    -0.23500
C1250       C  0.54268828  0.33676275  0.93987651     0.18700
C1251       C  0.51689311  0.33551810  0.95744552     0.15900
C1252       C  0.50197750  0.36224421  0.96402047    -0.18600
C1253       C  0.50736205  0.30771371  0.96890350    -0.20400
C1254       C  0.52335378  0.28168040  0.96320720    -0.13000
C1255       C  0.54964291  0.28286633  0.94636928     0.03700
C1256       C  0.55900828  0.31090000  0.93503517    -0.25100
H1257       H  0.54655959  0.41108071  0.92556963     0.08800
H1258       H  0.57200116  0.36535576  0.91412639     0.12400
H1259       H  0.48329588  0.36167486  0.97901525     0.12300
H1260       H  0.48757599  0.30608293  0.98236133     0.12100
H1261       H  0.51493721  0.26068883  0.97195441     0.12600
H1262       H  0.57958721  0.31304842  0.92293282     0.14600
C1263       C  0.69652683  0.44475361  0.08196428    -0.05400
C1264       C  0.67116714  0.42655275  0.08689484    -0.05400
C1265       C  0.64286619  0.43631953  0.07987638    -0.23500
C1266       C  0.63892895  0.46440903  0.06702796     0.18700
C1267       C  0.66383361  0.48323415  0.06163719     0.15900
C1268       C  0.69261377  0.47334384  0.06921251    -0.18600
C1269       C  0.65934221  0.51113847  0.04804221    -0.20400
C1270       C  0.63099607  0.51912283  0.03793810    -0.13000
C1271       C  0.60633460  0.49992842  0.04238185     0.03700
C1272       C  0.61051465  0.47314686  0.05813917    -0.25100
H1273       H  0.67318391  0.40424522  0.09592323     0.08800
H1274       H  0.62402780  0.42148625  0.08388550     0.12400
H1275       H  0.71175923  0.48775598  0.06523213     0.12300
H1276       H  0.67798911  0.52614851  0.04386036     0.12100
H1277       H  0.62856427  0.53975458  0.02565764     0.12600
H1278       H  0.59193175  0.45780011  0.06151618     0.14600
C1279       C  0.70428324  0.54648667  0.93257703    -0.05400
C1280       C  0.70284621  0.53368524  0.96096700    -0.05400
C1281       C  0.67886909  0.51537241  0.96927557    -0.23500
C1282       C  0.65536282  0.50998345  0.94968443     0.18700
C1283       C  0.65641828  0.52252614  0.92103454     0.15900
C1284       C  0.68096508  0.54046617  0.91255395    -0.18600
C1285       C  0.63250467  0.51755918  0.90169625    -0.20400
C1286       C  0.60697466  0.50216976  0.91139368    -0.13000
C1287       C  0.60526543  0.49065856  0.94027235     0.03700
C1288       C  0.63021203  0.49346242  0.95881413    -0.25100
H1289       H  0.72019860  0.53805431  0.97697133     0.08800
H1290       H  0.67856042  0.50571930  0.99117518     0.12400
H1291       H  0.68186887  0.54971227  0.89043136     0.12300
H1292       H  0.63293992  0.52683192  0.87956334     0.12100
H1293       H  0.58799662  0.50050479  0.89679434     0.12600
H1294       H  0.62913995  0.48500970  0.98124817     0.14600
C1295       C  0.57735210  0.70375485  0.05114582    -0.05400
C1296       C  0.57704086  0.69847199  0.02066303    -0.05400
C1297       C  0.56681136  0.67129215  0.00963562    -0.23500
C1298       C  0.55682569  0.64871193  0.02887072     0.18700
C1299       C  0.55618226  0.65366480  0.05952421     0.15900
C1300       C  0.56639921  0.68130795  0.07054102    -0.18600
C1301       C  0.54587655  0.63063553  0.07843069    -0.20400
C1302       C  0.53698687  0.60277557  0.06698856    -0.13000
C1303       C  0.53851660  0.59762128  0.03654979     0.03700
C1304       C  0.54801598  0.62103257  0.01773312    -0.25100
H1305       H  0.58579522  0.71499369  0.00529734     0.08800
H1306       H  0.56738279  0.66767978  0.98604134     0.12400
H1307       H  0.56625762  0.68517107  0.09409118     0.12300
H1308       H  0.54504616  0.63405020  0.10203003     0.12100
H1309       H  0.52949663  0.58521038  0.08186980     0.12600
H1310       H  0.54872372  0.61776697  0.99407503     0.14600
C1311       C  0.44242454  0.69139209  0.92353905    -0.05400
C1312       C  0.42356268  0.67535201  0.94262547    -0.05400
C1313       C  0.42820067  0.64524201  0.94840081    -0.23500
C1314       C  0.45226036  0.63081646  0.93571814     0.18700
C1315       C  0.47150374  0.64655944  0.91632940     0.15900
C1316       C  0.46609627  0.67682714  0.90985962    -0.18600
C1317       C  0.49622835  0.63190990  0.90477988    -0.20400
C1318       C  0.50301988  0.60285321  0.91427759    -0.13000
C1319       C  0.48465515  0.58786393  0.93476392     0.03700
C1320       C  0.45832895  0.60140703  0.94373836    -0.25100
H1321       H  0.40493684  0.68615960  0.95279257     0.08800
H1322       H  0.41334977  0.63339919  0.96338417     0.12400
H1323       H  0.48047386  0.68917369  0.89481312     0.12300
H1324       H  0.51122709  0.64353114  0.88980246     0.12100
H1325       H  0.52356534  0.59303280  0.90725866     0.12600
H1326       H  0.44381260  0.58994495  0.95935872     0.14600
C1327       C  0.31868301  0.53028977  0.06252949    -0.05400
C1328       C  0.31999475  0.51725713  0.03435298    -0.05400
C1329       C  0.34515582  0.50224273  0.02510236    -0.23500
C1330       C  0.37019078  0.50070550  0.04331449     0.18700
C1331       C  0.36944955  0.51345437  0.07166311     0.15900
C1332       C  0.34354435  0.52746512  0.08136604    -0.18600
C1333       C  0.39508962  0.51308361  0.08930695    -0.20400
C1334       C  0.42159376  0.50178772  0.07826386    -0.13000
C1335       C  0.42266644  0.48956802  0.04985565     0.03700
C1336       C  0.39646829  0.48811545  0.03294104    -0.25100
H1337       H  0.30193899  0.51936432  0.01879753     0.08800
H1338       H  0.34540585  0.49279601  0.00320140     0.12400
H1339       H  0.34315012  0.53653806  0.10339416     0.12300
H1340       H  0.39504452  0.52284370  0.11108691     0.12100
H1341       H  0.44152742  0.50350830  0.09153434     0.12600
H1342       H  0.39708317  0.47935887  0.01073747     0.14600
C1343       C  0.32122623  0.43882737  0.92023176    -0.05400
C1344       C  0.34409721  0.41800002  0.91793535    -0.05400
C1345       C  0.37361143  0.42636074  0.92274438    -0.23500
C1346       C  0.38108407  0.45570273  0.93045408     0.18700
C1347       C  0.35846890  0.47688852  0.93355509     0.15900
C1348       C  0.32860660  0.46834838  0.92837830    -0.18600
C1349       C  0.36621542  0.50603268  0.94220539    -0.20400
C1350       C  0.39574533  0.51359532  0.94905472    -0.13000
C1351       C  0.41825299  0.49242140  0.94657642     0.03700
C1352       C  0.41073703  0.46375636  0.93630316    -0.25100
H1353       H  0.33912267  0.39502463  0.91224759     0.08800
H1354       H  0.39061215  0.40972662  0.92066625     0.12400
H1355       H  0.31129657  0.48468348  0.93017955     0.12300
H1356       H  0.34928740  0.52264799  0.94481203     0.12100
H1357       H  0.40083896  0.53568263  0.95739371     0.12600
H1358       H  0.42765873  0.44694002  0.93496942     0.14600
C1359       C  0.07445071  0.45409211  0.30152573    -0.05400
C1360       C  0.05803144  0.48056569  0.29914469    -0.05400
C1361       C  0.05131187  0.49739941  0.32406734    -0.23500
C1362       C  0.06150243  0.48872061  0.35198863     0.18700
C1363       C  0.07872163  0.46278718  0.35463444     0.15900
C1364       C  0.08465599  0.44550678  0.32966879    -0.18600
C1365       C  0.08926509  0.45410370  0.38238205    -0.20400
C1366       C  0.08163628  0.47002464  0.40745058    -0.13000
C1367       C  0.06317741  0.49493176  0.40545130     0.03700
C1368       C  0.05389878  0.50478951  0.37743177    -0.25100
H1369       H  0.05050837  0.48865278  0.27792536     0.08800
H1370       H  0.03817499  0.51725209  0.32146140     0.12400
H1371       H  0.09678134  0.42505847  0.33247024     0.12300
H1372       H  0.10262569  0.43438676  0.38485365     0.12100
H1373       H  0.08879363  0.46173458  0.42876743     0.12600
H1374       H  0.03904908  0.52346764  0.37562909     0.14600
C1375       C  0.95169857  0.54734803  0.29972124    -0.05400
C1376       C  0.95355986  0.56874464  0.32227949    -0.05400
C1377       C  0.95865200  0.56036848  0.35151260    -0.23500
C1378       C  0.96245743  0.53034806  0.35903005     0.18700
C1379       C  0.96192929  0.50854587  0.33665835     0.15900
C1380       C  0.95659043  0.51716415  0.30703796    -0.18600
C1381       C  0.96650135  0.47857319  0.34449696    -0.20400
C1382       C  0.97188760  0.47044340  0.37399573    -0.13000
C1383       C  0.97234869  0.49203390  0.39637199     0.03700
C1384       C  0.96725529  0.52196451  0.38856852    -0.25100
H1385       H  0.95041838  0.59215774  0.31734422     0.08800
H1386       H  0.95938140  0.57743597  0.36831562     0.12400
H1387       H  0.95515202  0.50037975  0.28999811     0.12300
H1388       H  0.96638886  0.46145938  0.32774740     0.12100
H1389       H  0.97633732  0.44734451  0.37920543     0.12600
H1390       H  0.96814393  0.53905497  0.40536112     0.14600
C1391       C  0.06320333  0.52090042  0.59769758    -0.05400
C1392       C  0.08154688  0.50170179  0.61377521    -0.05400
C1393       C  0.09098157  0.50939771  0.64229574    -0.23500
C1394       C  0.08183270  0.53617165  0.65514161     0.18700
C1395       C  0.06496735  0.55634009  0.63821745     0.15900
C1396       C  0.05641712  0.54886147  0.60954066    -0.18600
C1397       C  0.05551179  0.58303153  0.65071240    -0.20400
C1398       C  0.06206200  0.58945053  0.68005362    -0.13000
C1399       C  0.07810654  0.56932491  0.69732258     0.03700
C1400       C  0.08838491  0.54285820  0.68475867    -0.25100
H1401       H  0.08685353  0.47997021  0.60517713     0.08800
H1402       H  0.10415343  0.49377395  0.65482507     0.12400
H1403       H  0.04247245  0.56398156  0.59716407     0.12300
H1404       H  0.04262714  0.59870775  0.63793371     0.12100
H1405       H  0.05454024  0.61015048  0.68940525     0.12600
H1406       H  0.10127346  0.52759565  0.69803937     0.14600
C1407       C  0.94244035  0.43025757  0.70664025    -0.05400
C1408       C  0.97297391  0.43631202  0.70337548    -0.05400
C1409       C  0.98416339  0.44910972  0.67746321    -0.23500
C1410       C  0.96518556  0.45579579  0.65391466     0.18700
C1411       C  0.93440345  0.45067590  0.65675225     0.15900
C1412       C  0.92315249  0.43812998  0.68322615    -0.18600
C1413       C  0.91571706  0.45744467  0.63270063    -0.20400
C1414       C  0.92765157  0.46778053  0.60570156    -0.13000
C1415       C  0.95842813  0.47149142  0.60247411     0.03700
C1416       C  0.97680500  0.46641909  0.62715589    -0.25100
H1417       H  0.98853239  0.43015781  0.72048227     0.08800
H1418       H  0.00787669  0.45291884  0.67550059     0.12400
H1419       H  0.89950420  0.43411743  0.68536987     0.12300
H1420       H  0.89197201  0.45386712  0.63448170     0.12100
H1421       H  0.91305340  0.47162405  0.58713677     0.12600
H1422       H  0.00060637  0.46979465  0.62523052     0.14600
C1423       C  0.06029794  0.39879572  0.49583639    -0.05400
C1424       C  0.08894072  0.39545577  0.50748446    -0.05400
C1425       C  0.09855609  0.36746554  0.51719331    -0.23500
C1426       C  0.07927916  0.34248051  0.51648449     0.18700
C1427       C  0.05086140  0.34532377  0.50389508     0.15900
C1428       C  0.04181403  0.37323980  0.49298594    -0.18600
C1429       C  0.03135970  0.32059086  0.50392081    -0.20400
C1430       C  0.03888650  0.29404790  0.51841810    -0.13000
C1431       C  0.06668811  0.29113243  0.53225386     0.03700
C1432       C  0.08734901  0.31520629  0.52959936    -0.25100
H1433       H  0.10353593  0.41473174  0.51003857     0.08800
H1434       H  0.12050499  0.36571292  0.52671281     0.12400
H1435       H  0.01951146  0.37549027  0.48441642     0.12300
H1436       H  0.00978592  0.32220387  0.49371993     0.12100
H1437       H  0.02230541  0.27634155  0.51974850     0.12600
H1438       H  0.10941397  0.31332211  0.53876754     0.14600
C1439       C  0.95503386  0.40479703  0.49623796    -0.05400
C1440       C  0.93939439  0.40551015  0.46928214    -0.05400
C1441       C  0.92998561  0.37928953  0.45559022    -0.23500
C1442       C  0.93526181  0.35162661  0.46881784     0.18700
C1443       C  0.94849952  0.35043126  0.49705436     0.15900
C1444       C  0.95864869  0.37704969  0.51055897    -0.18600
C1445       C  0.95254126  0.32250481  0.51052876    -0.20400
C1446       C  0.94518671  0.29615933  0.49545063    -0.13000
C1447       C  0.93370621  0.29710378  0.46650268     0.03700
C1448       C  0.92834600  0.32520242  0.45367137    -0.25100
H1449       H  0.93617408  0.42632181  0.45749287     0.08800
H1450       H  0.91946892  0.38064388  0.43413646     0.12400
H1451       H  0.97069204  0.37600638  0.53122446     0.12300
H1452       H  0.96217827  0.32098935  0.53237142     0.12100
H1453       H  0.94880508  0.27500297  0.50643247     0.12600
H1454       H  0.91988903  0.32675357  0.43137723     0.14600
C1455       C  0.93769107  0.68077953  0.55591706    -0.05400
C1456       C  0.93321509  0.65592617  0.57467142    -0.05400
C1457       C  0.93581138  0.62691729  0.56422307    -0.23500
C1458       C  0.94355368  0.62188519  0.53484338     0.18700
C1459       C  0.94843827  0.64639887  0.51557867     0.15900
C1460       C  0.94535312  0.67576064  0.52618547    -0.18600
C1461       C  0.95717658  0.64097161  0.48637879    -0.20400
C1462       C  0.96297520  0.61181431  0.47711283    -0.13000
C1463       C  0.95874495  0.58741043  0.49642444     0.03700
C1464       C  0.94791502  0.59269716  0.52494403    -0.25100
H1465       H  0.92801201  0.65886804  0.59774074     0.08800
H1466       H  0.93234380  0.60835881  0.57937612     0.12400
H1467       H  0.94884621  0.69458257  0.51136608     0.12300
H1468       H  0.96106069  0.65940488  0.47118140     0.12100
H1469       H  0.97175745  0.60842266  0.45521884     0.12600
H1470       H  0.94514402  0.57422887  0.54035232     0.14600
C1471       C  0.05829264  0.59007958  0.50361981    -0.05400
C1472       C  0.08608045  0.59251838  0.48977849    -0.05400
C1473       C  0.09559282  0.61960824  0.47695288    -0.23500
C1474       C  0.07699930  0.64444077  0.47680665     0.18700
C1475       C  0.04978682  0.64269145  0.49199125     0.15900
C1476       C  0.04103666  0.61588986  0.50604252    -0.18600
C1477       C  0.03084867  0.66713106  0.49123765    -0.20400
C1478       C  0.03760769  0.69217554  0.47375974    -0.13000
C1479       C  0.06421560  0.69405646  0.45761944     0.03700
C1480       C  0.08441766  0.67036804  0.46047039    -0.25100
H1481       H  0.09977385  0.57307218  0.48753606     0.08800
H1482       H  0.11667869  0.62057452  0.46558109     0.12400
H1483       H  0.01942750  0.61444904  0.51640947     0.12300
H1484       H  0.01019159  0.66643336  0.50327893     0.12100
H1485       H  0.02135368  0.70955061  0.47220293     0.12600
H1486       H  0.10557025  0.67151942  0.44928392     0.14600
C1487       C  0.44328644  0.05460775  0.71097103    -0.05400
C1488       C  0.44649735  0.02390131  0.70635673    -0.05400
C1489       C  0.45811794  0.01354725  0.67984392    -0.23500
C1490       C  0.46648960  0.03372655  0.65738787     0.18700
C1491       C  0.46539770  0.06467629  0.66245023     0.15900
C1492       C  0.45423136  0.07491705  0.68939855    -0.18600
C1493       C  0.47398484  0.08475287  0.63985834    -0.20400
C1494       C  0.48180002  0.07421697  0.61188871    -0.13000
C1495       C  0.48104759  0.04349377  0.60617602     0.03700
C1496       C  0.47445893  0.02342019  0.62947028    -0.25100
H1497       H  0.43837970  0.00781471  0.72249847     0.08800
H1498       H  0.45915419  0.98971234  0.67633448     0.12400
H1499       H  0.45266033  0.09871555  0.69297372     0.12300
H1500       H  0.47357518  0.10860152  0.64348437     0.12100
H1501       H  0.48716346  0.09005410  0.59445788     0.12600
H1502       H  0.47449560  0.99960067  0.62558504     0.14600
C1503       C  0.56120413  0.92833363  0.69061802    -0.05400
C1504       C  0.53077085  0.93470140  0.69174819    -0.05400
C1505       C  0.51406425  0.93763213  0.66587996    -0.23500
C1506       C  0.52731879  0.93409129  0.63822265     0.18700
C1507       C  0.55743242  0.92622259  0.63667663     0.15900
C1508       C  0.57413751  0.92346629  0.66274829    -0.18600
C1509       C  0.57083355  0.92308392  0.60898168    -0.20400
C1510       C  0.55539239  0.93053593  0.58324023    -0.13000
C1511       C  0.52608139  0.94030685  0.58470627     0.03700
C1512       C  0.51164085  0.94048585  0.61214027    -0.25100
H1513       H  0.51972295  0.93757085  0.71265594     0.08800
H1514       H  0.49092502  0.94339863  0.66750376     0.12400
H1515       H  0.59756566  0.91898611  0.66107018     0.12300
H1516       H  0.59387415  0.91692565  0.60733946     0.12100
H1517       H  0.56712114  0.93110159  0.56241076     0.12600
H1518       H  0.48927009  0.94878053  0.61345100     0.14600
C1519       C  0.40013857  0.05415364  0.51125943    -0.05400
C1520       C  0.39886597  0.08413916  0.50195324    -0.05400
C1521       C  0.37267285  0.09565819  0.49007119    -0.23500
C1522       C  0.34754438  0.07709791  0.48623027     0.18700
C1523       C  0.34835584  0.04726816  0.49640036     0.15900
C1524       C  0.37423460  0.03627883  0.50958809    -0.18600
C1525       C  0.32393081  0.02827392  0.49155265    -0.20400
C1526       C  0.29939210  0.03819417  0.47571025    -0.13000
C1527       C  0.29793450  0.06788090  0.46523093     0.03700
C1528       C  0.32215439  0.08740688  0.47131992    -0.25100
H1529       H  0.41861177  0.09826419  0.50249313     0.08800
H1530       H  0.37260359  0.11860727  0.48239092     0.12400
H1531       H  0.37500134  0.01291536  0.51592273     0.12300
H1532       H  0.32421811  0.00535031  0.49920054     0.12100
H1533       H  0.28190149  0.02206823  0.47107768     0.12600
H1534       H  0.32162146  0.11049326  0.46415472     0.14600
C1535       C  0.29486223  0.92234956  0.51931377    -0.05400
C1536       C  0.29411246  0.93765549  0.49198935    -0.05400
C1537       C  0.32042094  0.94723068  0.47815176    -0.23500
C1538       C  0.34796973  0.94139235  0.49117100     0.18700
C1539       C  0.34888502  0.92336059  0.51683633     0.15900
C1540       C  0.32258998  0.91410119  0.53065089    -0.18600
C1541       C  0.37610968  0.91638050  0.52958080    -0.20400
C1542       C  0.40217651  0.92879300  0.51830278    -0.13000
C1543       C  0.40161270  0.94893838  0.49434865     0.03700
C1544       C  0.37443599  0.95446387  0.48015445    -0.25100
H1545       H  0.27324879  0.94335023  0.48178743     0.08800
H1546       H  0.31915245  0.96034033  0.45802478     0.12400
H1547       H  0.32411267  0.90254997  0.55163927     0.12300
H1548       H  0.37718266  0.90229361  0.54908056     0.12100
H1549       H  0.42267296  0.92406976  0.52974852     0.12600
H1550       H  0.37371854  0.96990297  0.46166112     0.14600
C1551       C  0.52990513  0.07618389  0.30805489    -0.05400
C1552       C  0.51201683  0.05000772  0.30770738    -0.05400
C1553       C  0.49228891  0.04342119  0.33056363    -0.23500
C1554       C  0.49096661  0.06199113  0.35512571     0.18700
C1555       C  0.50833721  0.08852787  0.35584663     0.15900
C1556       C  0.52692369  0.09594102  0.33192300    -0.18600
C1557       C  0.50845083  0.10601411  0.38141245    -0.20400
C1558       C  0.49408838  0.09558599  0.40692318    -0.13000
C1559       C  0.47788115  0.06857240  0.40659915     0.03700
C1560       C  0.47471385  0.05298396  0.38005498    -0.25100
H1561       H  0.51391287  0.03374640  0.29037088     0.08800
H1562       H  0.47928592  0.02287229  0.32977535     0.12400
H1563       H  0.53981810  0.11653407  0.33258082     0.12300
H1564       H  0.52164793  0.12642356  0.38244856     0.12100
H1565       H  0.49718888  0.10757716  0.42737642     0.12600
H1566       H  0.46275837  0.03177887  0.37990000     0.14600
C1567       C  0.48441012  0.97228853  0.39310367    -0.05400
C1568       C  0.50399326  0.96943747  0.36925177    -0.05400
C1569       C  0.49341592  0.96018646  0.34151801    -0.23500
C1570       C  0.46296980  0.95443742  0.33699551     0.18700
C1571       C  0.44329350  0.95754371  0.36091281     0.15900
C1572       C  0.45412777  0.96581765  0.38867643    -0.18600
C1573       C  0.41285531  0.95296063  0.35669864    -0.20400
C1574       C  0.40185526  0.94478088  0.32917865    -0.13000
C1575       C  0.42100764  0.94027280  0.30522568     0.03700
C1576       C  0.45171481  0.94568282  0.30918680    -0.25100
H1577       H  0.52734688  0.97473961  0.37193855     0.08800
H1578       H  0.50893001  0.95817570  0.32347734     0.12400
H1579       H  0.43857905  0.96846274  0.40662538     0.12300
H1580       H  0.39745537  0.95575626  0.37473854     0.12100
H1581       H  0.37812347  0.94168707  0.32673487     0.12600
H1582       H  0.46681588  0.94235427  0.29101511     0.14600
C1583       C  0.68579909  0.06653317  0.54254915    -0.05400
C1584       C  0.68189688  0.03775144  0.53044905    -0.05400
C1585       C  0.65696702  0.03028182  0.51353770    -0.23500
C1586       C  0.63446805  0.05091138  0.50914754     0.18700
C1587       C  0.63742994  0.07966665  0.52147532     0.15900
C1588       C  0.66326716  0.08752909  0.53748151    -0.18600
C1589       C  0.61393720  0.09963183  0.51855957    -0.20400
C1590       C  0.58725775  0.09051907  0.50518921    -0.13000
C1591       C  0.58400805  0.06178990  0.49328513     0.03700
C1592       C  0.60826377  0.04254929  0.49424173    -0.25100
H1593       H  0.69775183  0.02040441  0.53454185     0.08800
H1594       H  0.65480790  0.00790583  0.50478268     0.12400
H1595       H  0.66547001  0.10988570  0.54611876     0.12300
H1596       H  0.61559888  0.12171982  0.52801184     0.12100
H1597       H  0.56866559  0.10547962  0.50524292     0.12600
H1598       H  0.60580727  0.02007145  0.48581099     0.14600
C1599       C  0.57707914  0.95451022  0.47782010    -0.05400
C1600       C  0.57439644  0.94481831  0.44838674    -0.05400
C1601       C  0.59857039  0.93358411  0.43333160    -0.23500
C1602       C  0.62593137  0.93107090  0.44750963     0.18700
C1603       C  0.62866841  0.93917154  0.47750960     0.15900
C1604       C  0.60433101  0.95128687  0.49243616    -0.18600
C1605       C  0.65589313  0.93553437  0.49181142    -0.20400
C1606       C  0.68027322  0.92491040  0.47635702    -0.13000
C1607       C  0.67831072  0.91847126  0.44597565     0.03700
C1608       C  0.65069448  0.92117591  0.43189825    -0.25100
H1609       H  0.55383926  0.94723120  0.43630001     0.08800
H1610       H  0.59595435  0.92734278  0.41043047     0.12400
H1611       H  0.60674224  0.95872881  0.51500555     0.12300
H1612       H  0.65840391  0.94105888  0.51490628     0.12100
H1613       H  0.70081527  0.92199582  0.48832039     0.12600
H1614       H  0.64855229  0.91653465  0.40858020     0.14600
loop_ 
_geom_bond_atom_site_label_1 
_geom_bond_atom_site_label_2 
_geom_bond_distance 
_geom_bond_site_symmetry_2 
_ccdc_geom_bond_type 
O1            C9   1.261       .  A
O1          Co21   1.943   1_565  S
O2           C10   1.255       .  A
O2          Co22   1.961       .  S
O3           C11   1.264       .  A
O3          Co23   1.983   1_565  S
O4           C12   1.288       .  A
O4          Co24   2.078   1_565  S
O5           C11   1.268       .  A
O5          Co22   1.994       .  S
O6           C12   1.267       .  A
O6          Co21   1.930   1_565  S
O7           C10   1.266       .  A
O7          Co24   2.030   1_565  S
O8            C9   1.287       .  A
O8          Co23   2.069   1_565  S
C9         C1599   1.483       .  S
C10        C1543   1.480       .  S
C11        C1511   1.469       .  S
C12        C1567   1.485       .  S
O13          C26   1.289       .  A
O13         Co21   2.075       .  S
O14          C27   1.270       .  A
O14         Co22   1.994   1_545  S
O15          C28   1.254       .  A
O15         Co23   1.967       .  S
O16          C29   1.264       .  A
O16         Co24   1.958       .  S
O17          C29   1.285       .  A
O17         Co22   2.057   1_545  S
O18          C28   1.265       .  A
O18         Co21   2.029       .  S
O19          C26   1.269       .  A
O19         Co24   1.918       .  S
O20          C27   1.274       .  A
O20         Co23   1.998       .  S
Co21         O25   2.022       .  S
Co22         O25   2.020   1_565  S
Co23         O25   2.030       .  S
Co24         O25   2.032       .  S
C26        C1559   1.468       .  S
C27        C1495   1.485       .  S
C28        C1591   1.480       .  S
C29        C1519   1.485       .  S
O30          C38   1.265       .  A
O30         Co50   1.970       .  S
O31          C39   1.267       .  A
O31         Co51   1.947   1_655  S
O32          C40   1.289       .  A
O32         Co52   2.082   1_655  S
O33          C41   1.264       .  A
O33         Co53   1.978   1_655  S
O34          C40   1.265       .  A
O34         Co51   1.927   1_655  S
O35          C41   1.273       .  A
O35         Co50   2.010       .  S
O36          C39   1.289       .  A
O36         Co53   2.069   1_655  S
O37          C38   1.271       .  A
O37         Co52   2.025   1_655  S
C38        C1463   1.487       .  S
C39        C1439   1.489       .  S
C40        C1383   1.490       .  S
C41        C1415   1.488       .  S
O42          C55   1.271       .  A
O42         Co50   1.985   1_455  S
O43          C56   1.287       .  A
O43         Co51   2.064       .  S
O44          C57   1.270       .  A
O44         Co52   1.974       .  S
O45          C58   1.259       .  A
O45         Co53   1.979       .  S
O46          C58   1.262       .  A
O46         Co51   2.017       .  S
O47          C57   1.279       .  A
O47         Co50   2.035   1_455  S
O48          C55   1.275       .  A
O48         Co53   1.996       .  S
O49          C56   1.276       .  A
O49         Co52   1.933       .  S
Co50         O54   2.035   1_655  S
Co51         O54   2.008       .  S
Co52         O54   2.046       .  S
Co53         O54   2.043       .  S
C55        C1391   1.478       .  S
C56        C1367   1.480       .  S
C57        C1471   1.488       .  S
C58        C1423   1.488       .  S
O59          C67   1.262       .  A
O59         Co79   1.976       .  S
O60          C68   1.269       .  A
O60         Co80   1.960       .  S
O61          C69   1.286       .  A
O61         Co81   2.065   1_554  S
O62          C70   1.267   1_556  A
O62         Co82   1.977       .  S
O63          C69   1.271       .  A
O63         Co80   1.931       .  S
O64          C70   1.272       .  A
O64         Co79   1.999       .  S
O65          C68   1.286       .  A
O65         Co82   2.062   1_554  S
O66          C67   1.268       .  A
O66         Co81   2.016   1_554  S
C67        C1335   1.484       .  S
C68        C1271   1.493       .  S
C69        C1231   1.481       .  S
C70        C1303   1.482       .  S
O71          C84   1.270       .  A
O71         Co79   1.984   1_556  S
O72          C85   1.289       .  A
O72         Co80   2.070   1_556  S
O73          C86   1.273       .  A
O73         Co81   1.968       .  S
O74          C87   1.258       .  A
O74         Co82   1.969       .  S
O75          C87   1.266       .  A
O75         Co80   2.018   1_556  S
O76          C86   1.282       .  A
O76         Co79   2.038   1_556  S
O77          C84   1.274       .  A
O77         Co82   1.999       .  S
O78          C85   1.274       .  A
O78         Co81   1.944       .  S
Co79         O83   2.024   1_554  S
Co80         O83   2.024   1_554  S
Co81         O83   2.032       .  S
Co82         O83   2.034       .  S
C84        C1319   1.481       .  S
C85        C1247   1.490       .  S
C86        C1351   1.485       .  S
C87        C1287   1.483       .  S
C88        C1199   1.503       .  S
C88          C89   1.413       .  A
C88          C93   1.414       .  A
C89          C90   1.403       .  A
C89          H94   1.083       .  S
C90        C1215   1.478       .  S
C90          C91   1.399       .  A
C91          C92   1.405       .  A
C91          H95   1.083       .  S
C92        C1503   1.500       .  S
C92          C93   1.414       .  A
C93          H96   1.081       .  S
C97        C1183   1.478       .  S
C97          C98   1.403       .  A
C97         C102   1.401       .  A
C98          C99   1.408       .  A
C98         H103   1.084       .  S
C99        C1223   1.488       .  S
C99         C100   1.409       .  A
C100        C101   1.409       .  A
C100        H104   1.082       .  S
C101       C1167   1.500       .  S
C101        C102   1.409       .  A
C102        H105   1.082       .  S
C106       C1151   1.502       .  S
C106        C107   1.415       .  A
C106        C111   1.409       .  A
C107        C108   1.413       .  A
C107        H112   1.082       .  S
C108       C1455   1.498       .  S
C108        C109   1.410       .  A
C109        C110   1.404       .  A
C109        H113   1.081       .  S
C110       C1191   1.496       .  S
C110        C111   1.401       .  A
C111        H114   1.081       .  S
C115       C1143   1.477       .  S
C115        C116   1.403       .  A
C115        C120   1.401       .  A
C116        C117   1.410       .  A
C116        H121   1.083       .  S
C117       C1279   1.494       .  S
C117        C118   1.410       .  A
C118        C119   1.405       .  A
C118        H122   1.083       .  S
C119       C1175   1.478       .  S
C119        C120   1.403       .  A
C120        H123   1.084       .  S
C124       C1103   1.477       .  S
C124        C125   1.399       .  A
C124        C129   1.401       .  A
C125        C126   1.402       .  A
C125        H130   1.084       .  S
C126       C1087   1.472       .  S
C126        C127   1.405       .  A
C127        C128   1.412       .  A
C127        H131   1.082       .  S
C128       C1119   1.499       .  S
C128        C129   1.409       .  A
C129        H132   1.082       .  S
C133       C1343   1.494       .  S
C133        C134   1.408       .  A
C133        C138   1.415       .  A
C134        C135   1.403       .  A
C134        H139   1.083       .  S
C135       C1127   1.497       .  S
C135        C136   1.402       .  A
C136        C137   1.406       .  A
C136        H140   1.083       .  S
C137       C1079   1.488       .  S
C137        C138   1.411       .  A
C138        H141   1.083       .  S
C142       C1055   1.486       .  S
C142        C143   1.413       .  A
C142        C147   1.406       .  A
C143        C144   1.415       .  A
C143        H148   1.084       .  S
C144       C1487   1.492       .  S
C144        C145   1.405       .  A
C145        C146   1.396       .  A
C145        H149   1.084       .  S
C146       C1111   1.472       .  S
C146        C147   1.398       .  A
C147        H150   1.085       .  S
C151       C1039   1.495       .  S
C151        C152   1.414       .  A
C151        C156   1.402       .  A
C152        C153   1.422       .  A
C152        H157   1.082       .  S
C153       C1431   1.508       .  S
C153        C154   1.413       .  A
C154        C155   1.401       .  A
C154        H158   1.081       .  S
C155       C1095   1.489       .  S
C155        C156   1.398       .  A
C156        H159   1.083       .  S
O160        C168   1.294       .  A
O160       Co180   2.068       .  S
O161        C169   1.291   1_545  A
O161       Co181   2.053       .  S
O162        C170   1.264   1_556  A
O162       Co182   1.962       .  S
O163        C171   1.260       .  A
O163       Co183   1.956       .  S
O164        C170   1.273       .  A
O164       Co181   2.022       .  S
O165        C171   1.275   1_556  A
O165       Co180   2.036       .  S
O166        C169   1.276       .  A
O166       Co183   1.919       .  S
O167        C168   1.277   1_545  A
O167       Co182   1.919       .  S
C168       C1207   1.479       .  S
C169        C975   1.478       .  S
C170       C1023   1.486       .  S
C171        C943   1.489       .  S
O172        C185   1.259       .  A
O172       Co180   1.969   1_554  S
O173        C186   1.258   1_554  A
O173       Co181   1.959       .  S
O174        C187   1.258   1_545  A
O174       Co182   1.988       .  S
O175        C188   1.259       .  A
O175       Co183   1.995       .  S
O176        C188   1.259   1_545  A
O176       Co181   1.977       .  S
O177        C187   1.259       .  A
O177       Co180   1.981       .  S
O178        C185   1.275       .  A
O178       Co183   2.047       .  S
O179        C186   1.273       .  A
O179       Co182   2.048       .  S
Co180       O184   2.090   1_556  S
Co181       O184   2.089   1_545  S
Co182       O184   2.001   1_546  S
Co183       O184   1.997       .  S
C185        C967   1.485       .  S
C186       C1015   1.483   1_556  S
C187       C1063   1.484   1_565  S
C188        C991   1.484       .  S
C189        C927   1.485       .  S
C189        C190   1.406       .  A
C189        C194   1.405       .  A
C190        C191   1.410       .  A
C190        H195   1.083       .  S
C191        C911   1.495       .  S
C191        C192   1.410       .  A
C192        C193   1.407       .  A
C192        H196   1.083       .  S
C193        C895   1.490       .  S
C193        C194   1.403       .  A
C194        H197   1.084       .  S
C198       C1311   1.476       .  S
C198        C199   1.400       .  A
C198        C203   1.410       .  A
C199        C200   1.400       .  A
C199        H204   1.085       .  S
C200        C935   1.479       .  S
C200        C201   1.403       .  A
C201        C202   1.411       .  A
C201        H205   1.083       .  S
C202        C959   1.497       .  S
C202        C203   1.411       .  A
C203        H206   1.084       .  S
C207        C887   1.506       .  S
C207        C208   1.409       .  A
C207        C212   1.409       .  A
C208        C209   1.405       .  A
C208        H213   1.080       .  S
C209        C919   1.496       .  S
C209        C210   1.403       .  A
C210        C211   1.412       .  A
C210        H214   1.082       .  S
C211       C1535   1.498       .  S
C211        C212   1.410       .  A
C212        H215   1.077       .  S
C216        C863   1.509       .  S
C216        C217   1.416       .  A
C216        C221   1.419       .  A
C217        C218   1.404       .  A
C217        H222   1.082       .  S
C218       C1399   1.473       .  S
C218        C219   1.393       .  A
C219        C220   1.396       .  A
C219        H223   1.085       .  S
C220        C903   1.478       .  S
C220        C221   1.409       .  A
C221        H224   1.082       .  S
C225        C831   1.477       .  S
C225        C226   1.405       .  A
C225        C230   1.403       .  A
C226        C227   1.405       .  A
C226        H231   1.084       .  S
C227        C823   1.475       .  S
C227        C228   1.402       .  A
C228        C229   1.402       .  A
C228        H232   1.084       .  S
C229        C847   1.471       .  S
C229        C230   1.403       .  A
C230        H233   1.084       .  S
C234       C1447   1.500       .  S
C234        C235   1.409       .  A
C234        C239   1.411       .  A
C235        C236   1.404       .  A
C235        H240   1.080       .  S
C236        C855   1.495       .  S
C236        C237   1.405       .  A
C237        C238   1.410       .  A
C237        H241   1.078       .  S
C238        C799   1.511       .  S
C238        C239   1.415       .  A
C239        H242   1.078       .  S
C243        C783   1.506       .  S
C243        C244   1.423       .  A
C243        C248   1.410       .  A
C244        C245   1.419       .  A
C244        H249   1.082       .  S
C245       C1263   1.505       .  S
C245        C246   1.409       .  A
C246        C247   1.399       .  A
C246        H250   1.084       .  S
C247        C839   1.486       .  S
C247        C248   1.399       .  A
C248        H251   1.083       .  S
C252        C983   1.466       .  S
C252        C253   1.398       .  A
C252        C257   1.394       .  A
C253        C254   1.410       .  A
C253        H258   1.082       .  S
C254       C1551   1.499       .  S
C254        C255   1.415       .  A
C255        C256   1.407       .  A
C255        H259   1.082       .  S
C256        C815   1.478       .  S
C256        C257   1.399       .  A
C257        H260   1.084       .  S
O261        C269   1.268       .  A
O261       Co281   1.981       .  S
O262        C270   1.291   1_554  A
O262       Co282   2.082       .  S
O263        C271   1.262       .  A
O263       Co283   1.967   1_455  S
O264        C272   1.265       .  A
O264       Co284   1.959       .  S
O265        C271   1.265       .  A
O265       Co282   2.024       .  S
O266        C272   1.285   1_655  A
O266       Co281   2.063       .  S
O267        C270   1.269       .  A
O267       Co284   1.919       .  S
O268        C269   1.275   1_554  A
O268       Co283   2.003       .  S
C269       C1135   1.487       .  S
C270        C775   1.482       .  S
C271        C743   1.486       .  S
C272        C871   1.488       .  S
O273        C286   1.261       .  A
O273       Co281   1.967   1_455  S
O274        C287   1.270       .  A
O274       Co282   1.966       .  S
O275        C288   1.265       .  A
O275       Co283   1.983       .  S
O276        C289   1.291   1_556  A
O276       Co284   2.080       .  S
O277        C289   1.271       .  A
O277       Co282   1.934       .  S
O278        C288   1.276   1_556  A
O278       Co281   2.012       .  S
O279        C286   1.268       .  A
O279       Co284   2.024       .  S
O280        C287   1.284   1_655  A
O280       Co283   2.044       .  S
Co281       O285   2.039   1_655  S
Co282       O285   2.040   1_554  S
Co283       O285   2.035   1_654  S
Co284       O285   2.028       .  S
C286        C727   1.487       .  S
C287        C751   1.487       .  S
C288        C791   1.478       .  S
C289       C1071   1.488   1_554  S
C290        C687   1.490       .  S
C290        C291   1.402       .  A
C290        C295   1.400       .  A
C291        C292   1.416       .  A
C291        H296   1.082       .  S
C292       C1527   1.507       .  S
C292        C293   1.420       .  A
C293        C294   1.412       .  A
C293        H297   1.081       .  S
C294        C711   1.501       .  S
C294        C295   1.404       .  A
C295        H298   1.083       .  S
C299        C703   1.513       .  S
C299        C300   1.413       .  A
C299        C304   1.411       .  A
C300        C301   1.413       .  A
C300        H305   1.080       .  S
C301        C679   1.509       .  S
C301        C302   1.410       .  A
C302        C303   1.412       .  A
C302        H306   1.078       .  S
C303        C655   1.507       .  S
C303        C304   1.411       .  A
C304        H307   1.079       .  S
C308        C759   1.508       .  S
C308        C309   1.413       .  A
C308        C313   1.414       .  A
C309        C310   1.408       .  A
C309        H314   1.080       .  S
C310       C1359   1.504       .  S
C310        C311   1.409       .  A
C311        C312   1.403       .  A
C311        H315   1.082       .  S
C312        C671   1.484       .  S
C312        C313   1.407       .  A
C313        H316   1.081       .  S
C317       C1007   1.493       .  S
C317        C318   1.409       .  A
C317        C322   1.411       .  A
C318        C319   1.410       .  A
C318        H323   1.083       .  S
C319       C1239   1.489       .  S
C319        C320   1.408       .  A
C320        C321   1.400       .  A
C320        H324   1.083       .  S
C321        C663   1.484       .  S
C321        C322   1.403       .  A
C322        H325   1.083       .  S
C326        C639   1.475       .  S
C326        C327   1.399       .  A
C326        C331   1.404       .  A
C327        C328   1.404       .  A
C327        H332   1.084       .  S
C328        C623   1.488       .  S
C328        C329   1.407       .  A
C329        C330   1.411       .  A
C329        H333   1.082       .  S
C330        C607   1.499       .  S
C330        C331   1.412       .  A
C331        H334   1.083       .  S
C335       C1407   1.500       .  S
C335        C336   1.418       .  A
C335        C340   1.409       .  A
C336        C337   1.413       .  A
C336        H341   1.082       .  S
C337        C719   1.505       .  S
C337        C338   1.408       .  A
C338        C339   1.402       .  A
C338        H342   1.082       .  S
C339        C647   1.485       .  S
C339        C340   1.402       .  A
C340        H343   1.083       .  S
C344       C1255   1.510       .  S
C344        C345   1.418       .  A
C344        C349   1.409       .  A
C345        C346   1.423       .  A
C345        H350   1.079       .  S
C346       C1031   1.511       .  S
C346        C347   1.412       .  A
C347        C348   1.396       .  A
C347        H351   1.081       .  S
C348        C631   1.476       .  S
C348        C349   1.396       .  A
C349        H352   1.082       .  S
C353       C1583   1.510       .  S
C353        C354   1.414       .  A
C353        C358   1.418       .  A
C354        C355   1.408       .  A
C354        H359   1.080       .  S
C355        C599   1.502       .  S
C355        C356   1.402       .  A
C356        C357   1.405       .  A
C356        H360   1.082       .  S
C357        C615   1.500       .  S
C357        C358   1.413       .  A
C358        H361   1.080       .  S
C362        C551   1.478       .  S
C362        C363   1.401       .  A
C362        C367   1.401       .  A
C363        C364   1.406       .  A
C363        H368   1.084       .  S
C364        C559   1.489       .  S
C364        C365   1.410       .  A
C365        C366   1.410       .  A
C365        H369   1.083       .  S
C366        C583   1.492       .  S
C366        C367   1.403       .  A
C367        H370   1.083       .  S
C371       C1607   1.496       .  S
C371        C372   1.406       .  A
C371        C376   1.412       .  A
C372        C373   1.404       .  A
C372        H377   1.082       .  S
C373        C527   1.483       .  S
C373        C374   1.400       .  A
C374        C375   1.401       .  A
C374        H378   1.084       .  S
C375        C575   1.472       .  S
C375        C376   1.406       .  A
C376        H379   1.082       .  S
C380        C735   1.498       .  S
C380        C381   1.409       .  A
C380        C385   1.419       .  A
C381        C382   1.396       .  A
C381        H386   1.084       .  S
C382        C567   1.478       .  S
C382        C383   1.395       .  A
C383        C384   1.408       .  A
C383        H387   1.084       .  S
C384       C1375   1.497       .  S
C384        C385   1.420       .  A
C385        H388   1.083       .  S
C389        C951   1.504       .  S
C389        C390   1.413       .  A
C389        C394   1.412       .  A
C390        C391   1.408       .  A
C390        H395   1.082       .  S
C391       C1295   1.487       .  S
C391        C392   1.398       .  A
C392        C393   1.398       .  A
C392        H396   1.084       .  S
C393        C543   1.473       .  S
C393        C394   1.405       .  A
C394        H397   1.082       .  S
C398        C495   1.481       .  S
C398        C399   1.401       .  A
C398        C403   1.405       .  A
C399        C400   1.401       .  A
C399        H404   1.083       .  S
C400        C511   1.485       .  S
C400        C401   1.402       .  A
C401        C402   1.408       .  A
C401        H405   1.080       .  S
C402        C487   1.502       .  S
C402        C403   1.414       .  A
C403        H406   1.081       .  S
C407       C1575   1.494       .  S
C407        C408   1.410       .  A
C407        C412   1.415       .  A
C408        C409   1.396       .  A
C408        H413   1.084       .  S
C409        C519   1.470       .  S
C409        C410   1.393       .  A
C410        C411   1.399       .  A
C410        H414   1.085       .  S
C411        C999   1.478       .  S
C411        C412   1.412       .  A
C412        H415   1.083       .  S
C416       C1479   1.504       .  S
C416        C417   1.409       .  A
C416        C421   1.419       .  A
C417        C418   1.398       .  A
C417        H422   1.082       .  S
C418        C503   1.475       .  S
C418        C419   1.398       .  A
C419        C420   1.407       .  A
C419        H423   1.083       .  S
C420        C471   1.498       .  S
C420        C421   1.414       .  A
C421        H424   1.081       .  S
C425       C1327   1.505       .  S
C425        C426   1.417       .  A
C425        C430   1.418       .  A
C426        C427   1.407       .  A
C426        H431   1.081       .  S
C427        C479   1.490       .  S
C427        C428   1.398       .  A
C428        C429   1.397       .  A
C428        H432   1.084       .  S
C429        C767   1.488       .  S
C429        C430   1.405       .  A
C430        H433   1.081       .  S
O434        C442   1.263   1_655  A
O434       Co454   1.982       .  S
O435        C443   1.270   1_455  A
O435       Co455   1.968       .  S
O436        C444   1.291   1_565  A
O436       Co456   2.085       .  S
O437        C445   1.269       .  A
O437       Co457   1.999       .  S
O438        C444   1.269       .  A
O438       Co455   1.918       .  S
O439        C445   1.271   1_565  A
O439       Co454   1.994       .  S
O440        C443   1.280       .  A
O440       Co457   2.039       .  S
O441        C442   1.262       .  A
O441       Co456   2.000       .  S
C442       C1159   1.482       .  S
C443       C1047   1.485       .  S
C444        C879   1.473   1_545  S
C445        C591   1.469       .  S
O446        C459   1.269       .  A
O446       Co454   1.983       .  S
O447        C460   1.289   1_545  A
O447       Co455   2.076       .  S
O448        C461   1.273   1_455  A
O448       Co456   1.968       .  S
O449        C462   1.264   1_655  A
O449       Co457   1.981       .  S
O450        C462   1.265       .  A
O450       Co455   2.000       .  S
O451        C461   1.283       .  A
O451       Co454   2.042       .  S
O452        C459   1.270       .  A
O452       Co457   1.994   1_565  S
O453        C460   1.269       .  A
O453       Co456   1.925       .  S
Co454       O458   2.030       .  S
Co455       O458   2.019   1_445  S
Co456       O458   2.021   1_455  S
Co457       O458   2.044   1_545  S
C459        C535   1.479       .  S
C460        C695   1.484       .  S
C461        C463   1.488       .  S
C462        C807   1.483   1_455  S
C463        C464   1.408       .  A
C463        C468   1.408   1_655  A
C464        C465   1.403       .  A
C464        H473   1.083       .  S
C465        C466   1.405   1_655  A
C465        H474   1.084       .  S
C466        C472   1.413       .  A
C466        C467   1.413       .  A
C467        C469   1.400       .  A
C467        C468   1.406       .  A
C468        H475   1.085       .  S
C469        C470   1.397       .  A
C469        H476   1.084       .  S
C470        C471   1.408       .  A
C470        H477   1.082       .  S
C471        C472   1.412       .  A
C472        H478   1.084       .  S
C479        C480   1.405       .  A
C479        C484   1.410       .  A
C480        C481   1.402       .  A
C480        H489   1.083       .  S
C481        C482   1.406       .  A
C481        H490   1.083       .  S
C482        C488   1.404       .  A
C482        C483   1.408       .  A
C483        C485   1.400       .  A
C483        C484   1.398       .  A
C484        H491   1.084       .  S
C485        C486   1.395       .  A
C485        H492   1.083       .  S
C486        C487   1.409       .  A
C486        H493   1.080       .  S
C487        C488   1.418       .  A
C488        H494   1.081       .  S
C495        C496   1.404       .  A
C495        C500   1.406       .  A
C496        C497   1.396       .  A
C496        H505   1.083       .  S
C497        C498   1.401       .  A
C497        H506   1.084       .  S
C498        C504   1.403       .  A
C498        C499   1.415       .  A
C499        C501   1.405       .  A
C499        C500   1.407       .  A
C500        H507   1.085       .  S
C501        C502   1.401       .  A
C501        H508   1.083       .  S
C502        C503   1.402       .  A
C502        H509   1.083       .  S
C503        C504   1.402       .  A
C504        H510   1.085       .  S
C511        C512   1.407       .  A
C511        C516   1.407       .  A
C512        C513   1.393       .  A
C512        H521   1.083       .  S
C513        C514   1.399       .  A
C513        H522   1.083       .  S
C514        C520   1.400       .  A
C514        C515   1.415       .  A
C515        C517   1.403       .  A
C515        C516   1.403       .  A
C516        H523   1.084       .  S
C517        C518   1.398       .  A
C517        H524   1.083       .  S
C518        C519   1.402       .  A
C518        H525   1.083       .  S
C519        C520   1.400       .  A
C520        H526   1.084       .  S
C527        C528   1.405       .  A
C527        C532   1.412       .  A
C528        C529   1.388       .  A
C528        H537   1.083       .  S
C529        C530   1.398       .  A
C529        H538   1.084       .  S
C530        C536   1.391       .  A
C530        C531   1.410       .  A
C531        C533   1.410       .  A
C531        C532   1.408       .  A
C532        H539   1.083       .  S
C533        C534   1.408       .  A
C533        H540   1.083       .  S
C534        C535   1.404       .  A
C534        H541   1.083       .  S
C535        C536   1.405       .  A
C536        H542   1.080       .  S
C543        C544   1.403       .  A
C543        C548   1.404       .  A
C544        C545   1.394       .  A
C544        H553   1.083       .  S
C545        C546   1.400       .  A
C545        H554   1.084       .  S
C546        C552   1.400       .  A
C546        C547   1.415       .  A
C547        C549   1.403       .  A
C547        C548   1.406       .  A
C548        H555   1.084       .  S
C549        C550   1.399       .  A
C549        H556   1.084       .  S
C550        C551   1.405       .  A
C550        H557   1.083       .  S
C551        C552   1.403       .  A
C552        H558   1.085       .  S
C559        C560   1.406       .  A
C559        C564   1.409       .  A
C560        C561   1.398       .  A
C560        H569   1.083       .  S
C561        C562   1.402       .  A
C561        H570   1.084       .  S
C562        C568   1.405       .  A
C562        C563   1.414       .  A
C563        C565   1.404       .  A
C563        C564   1.405       .  A
C564        H571   1.084       .  S
C565        C566   1.399       .  A
C565        H572   1.084       .  S
C566        C567   1.403       .  A
C566        H573   1.083       .  S
C567        C568   1.404       .  A
C568        H574   1.084       .  S
C575        C576   1.402       .  A
C575        C580   1.402       .  A
C576        C577   1.399       .  A
C576        H585   1.083       .  S
C577        C578   1.405       .  A
C577        H586   1.084       .  S
C578        C584   1.404       .  A
C578        C579   1.413       .  A
C579        C581   1.401       .  A
C579        C580   1.403       .  A
C580        H587   1.084       .  S
C581        C582   1.397       .  A
C581        H588   1.083       .  S
C582        C583   1.407       .  A
C582        H589   1.083       .  S
C583        C584   1.411       .  A
C584        H590   1.083       .  S
C591        C592   1.401       .  A
C591        C596   1.406       .  A
C592        C593   1.400       .  A
C592        H601   1.083       .  S
C593        C594   1.406       .  A
C593        H602   1.083       .  S
C594        C600   1.405       .  A
C594        C595   1.411       .  A
C595        C597   1.403       .  A
C595        C596   1.406       .  A
C596        H603   1.080   1_545  S
C597        C598   1.400       .  A
C597        H604   1.084   1_545  S
C598        C599   1.410       .  A
C598        H605   1.082       .  S
C599        C600   1.414       .  A
C600        H606   1.082       .  S
C607        C608   1.410       .  A
C607        C612   1.409       .  A
C608        C609   1.401       .  A
C608        H617   1.083       .  S
C609        C610   1.402       .  A
C609        H618   1.083       .  S
C610        C616   1.412       .  A
C610        C611   1.414       .  A
C611        C613   1.399       .  A
C611        C612   1.407       .  A
C612        H619   1.083       .  S
C613        C614   1.395       .  A
C613        H620   1.084       .  S
C614        C615   1.411       .  A
C614        H621   1.082       .  S
C615        C616   1.410       .  A
C616        H622   1.083       .  S
C623        C624   1.408       .  A
C623        C628   1.406       .  A
C624        C625   1.398       .  A
C624        H633   1.083       .  S
C625        C626   1.402       .  A
C625        H634   1.084       .  S
C626        C632   1.407       .  A
C626        C627   1.415       .  A
C627        C629   1.402       .  A
C627        C628   1.404       .  A
C628        H635   1.084       .  S
C629        C630   1.397       .  A
C629        H636   1.084       .  S
C630        C631   1.402       .  A
C630        H637   1.083       .  S
C631        C632   1.404       .  A
C632        H638   1.084       .  S
C639        C640   1.403       .  A
C639        C644   1.401       .  A
C640        C641   1.403       .  A
C640        H649   1.083       .  S
C641        C642   1.406       .  A
C641        H650   1.083       .  S
C642        C648   1.409       .  A
C642        C643   1.415       .  A
C643        C645   1.400       .  A
C643        C644   1.402       .  A
C644        H651   1.085       .  S
C645        C646   1.395       .  A
C645        H652   1.084       .  S
C646        C647   1.405       .  A
C646        H653   1.083       .  S
C647        C648   1.409       .  A
C648        H654   1.084       .  S
C655        C656   1.412       .  A
C655        C660   1.413       .  A
C656        C657   1.401       .  A
C656        H665   1.081       .  S
C657        C658   1.402       .  A
C657        H666   1.083       .  S
C658        C664   1.410       .  A
C658        C659   1.413       .  A
C659        C661   1.403       .  A
C659        C660   1.408       .  A
C660        H667   1.082       .  S
C661        C662   1.398       .  A
C661        H668   1.083       .  S
C662        C663   1.403       .  A
C662        H669   1.083       .  S
C663        C664   1.408       .  A
C664        H670   1.084       .  S
C671        C672   1.403       .  A
C671        C676   1.405       .  A
C672        C673   1.404       .  A
C672        H681   1.083       .  S
C673        C674   1.407       .  A
C673        H682   1.083       .  S
C674        C680   1.413       .  A
C674        C675   1.412       .  A
C675        C677   1.400       .  A
C675        C676   1.408       .  A
C676        H683   1.084       .  S
C677        C678   1.398       .  A
C677        H684   1.083       .  S
C678        C679   1.411       .  A
C678        H685   1.082       .  S
C679        C680   1.416       .  A
C680        H686   1.081       .  S
C687        C688   1.406       .  A
C687        C692   1.411       .  A
C688        C689   1.392       .  A
C688        H697   1.083       .  S
C689        C690   1.399       .  A
C689        H698   1.084       .  S
C690        C696   1.400       .  A
C690        C691   1.413       .  A
C691        C693   1.406   1_545  A
C691        C692   1.412       .  A
C692        H699   1.084       .  S
C693        C694   1.405       .  A
C693        H700   1.083       .  S
C694        C695   1.406       .  A
C694        H701   1.083       .  S
C695        C696   1.406   1_565  A
C696        H702   1.085       .  S
C703        C704   1.414       .  A
C703        C708   1.412       .  A
C704        C705   1.404       .  A
C704        H713   1.081       .  S
C705        C706   1.402       .  A
C705        H714   1.083       .  S
C706        C712   1.416       .  A
C706        C707   1.412       .  A
C707        C709   1.399       .  A
C707        C708   1.407       .  A
C708        H715   1.082       .  S
C709        C710   1.394       .  A
C709        H716   1.084       .  S
C710        C711   1.410       .  A
C710        H717   1.083       .  S
C711        C712   1.412       .  A
C712        H718   1.083       .  S
C719        C720   1.411       .  A
C719        C724   1.416       .  A
C720        C721   1.394       .  A
C720        H729   1.081       .  S
C721        C722   1.398       .  A
C721        H730   1.084       .  S
C722        C728   1.403       .  A
C722        C723   1.412       .  A
C723        C725   1.407   1_655  A
C723        C724   1.414       .  A
C724        H731   1.083       .  S
C725        C726   1.406       .  A
C725        H732   1.083       .  S
C726        C727   1.407       .  A
C726        H733   1.083       .  S
C727        C728   1.407   1_455  A
C728        H734   1.084       .  S
C735        C736   1.408       .  A
C735        C740   1.414       .  A
C736        C737   1.393       .  A
C736        H745   1.083       .  S
C737        C738   1.398       .  A
C737        H746   1.084       .  S
C738        C744   1.404       .  A
C738        C739   1.414       .  A
C739        C741   1.409   1_655  A
C739        C740   1.419       .  A
C740        H747   1.084   1_655  S
C741        C742   1.409       .  A
C741        H748   1.083       .  S
C742        C743   1.406       .  A
C742        H749   1.083       .  S
C743        C744   1.405   1_455  A
C744        H750   1.085       .  S
C751        C752   1.408       .  A
C751        C756   1.407       .  A
C752        C753   1.404       .  A
C752        H761   1.083       .  S
C753        C754   1.406       .  A
C753        H762   1.084       .  S
C754        C760   1.413       .  A
C754        C755   1.411       .  A
C755        C757   1.396       .  A
C755        C756   1.402       .  A
C756        H763   1.084   1_455  S
C757        C758   1.393       .  A
C757        H764   1.083       .  S
C758        C759   1.413       .  A
C758        H765   1.081       .  S
C759        C760   1.417       .  A
C760        H766   1.082       .  S
C767        C768   1.408       .  A
C767        C772   1.410       .  A
C768        C769   1.390       .  A
C768        H777   1.083       .  S
C769        C770   1.397       .  A
C769        H778   1.084       .  S
C770        C776   1.398       .  A
C770        C771   1.413       .  A
C771        C773   1.406   1_554  A
C771        C772   1.411       .  A
C772        H779   1.084       .  S
C773        C774   1.404       .  A
C773        H780   1.084       .  S
C774        C775   1.407       .  A
C774        H781   1.083       .  S
C775        C776   1.404   1_556  A
C776        H782   1.085       .  S
C783        C784   1.408       .  A
C783        C788   1.413       .  A
C784        C785   1.407       .  A
C784        H793   1.082       .  S
C785        C786   1.407       .  A
C785        H794   1.083   1_554  S
C786        C792   1.416       .  A
C786        C787   1.412       .  A
C787        C789   1.402       .  A
C787        C788   1.407       .  A
C788        H795   1.083       .  S
C789        C790   1.398       .  A
C789        H796   1.084       .  S
C790        C791   1.405       .  A
C790        H797   1.084       .  S
C791        C792   1.411       .  A
C792        H798   1.084   1_554  S
C799        C800   1.413       .  A
C799        C804   1.419       .  A
C800        C801   1.396       .  A
C800        H809   1.078       .  S
C801        C802   1.398       .  A
C801        H810   1.083   1_655  S
C802        C808   1.403   1_655  A
C802        C803   1.409       .  A
C803        C805   1.406       .  A
C803        C804   1.407       .  A
C804        H811   1.081       .  S
C805        C806   1.402       .  A
C805        H812   1.084       .  S
C806        C807   1.405       .  A
C806        H813   1.083       .  S
C807        C808   1.409   1_655  A
C808        H814   1.085       .  S
C815        C816   1.405       .  A
C815        C820   1.403       .  A
C816        C817   1.399       .  A
C816        H825   1.083       .  S
C817        C818   1.403       .  A
C817        H826   1.083       .  S
C818        C824   1.407       .  A
C818        C819   1.416       .  A
C819        C821   1.402       .  A
C819        C820   1.404       .  A
C820        H827   1.085       .  S
C821        C822   1.397       .  A
C821        H828   1.083       .  S
C822        C823   1.402       .  A
C822        H829   1.083       .  S
C823        C824   1.404       .  A
C824        H830   1.084       .  S
C831        C832   1.403       .  A
C831        C836   1.403       .  A
C832        C833   1.400       .  A
C832        H841   1.083       .  S
C833        C834   1.404       .  A
C833        H842   1.084       .  S
C834        C840   1.406       .  A
C834        C835   1.415       .  A
C835        C837   1.402       .  A
C835        C836   1.406       .  A
C836        H843   1.084       .  S
C837        C838   1.398       .  A
C837        H844   1.084       .  S
C838        C839   1.405       .  A
C838        H845   1.083       .  S
C839        C840   1.407       .  A
C840        H846   1.084       .  S
C847        C848   1.402       .  A
C847        C852   1.400       .  A
C848        C849   1.400       .  A
C848        H857   1.083       .  S
C849        C850   1.404       .  A
C849        H858   1.084       .  S
C850        C856   1.407       .  A
C850        C851   1.415       .  A
C851        C853   1.398       .  A
C851        C852   1.403       .  A
C852        H859   1.085       .  S
C853        C854   1.395       .  A
C853        H860   1.084       .  S
C854        C855   1.409       .  A
C854        H861   1.082       .  S
C855        C856   1.410       .  A
C856        H862   1.083       .  S
C863        C864   1.412       .  A
C863        C868   1.414       .  A
C864        C865   1.401       .  A
C864        H873   1.082       .  S
C865        C866   1.402       .  A
C865        H874   1.083       .  S
C866        C872   1.411       .  A
C866        C867   1.412       .  A
C867        C869   1.403       .  A
C867        C868   1.411       .  A
C868        H875   1.082       .  S
C869        C870   1.401       .  A
C869        H876   1.083       .  S
C870        C871   1.407       .  A
C870        H877   1.083       .  S
C871        C872   1.410       .  A
C872        H878   1.084       .  S
C879        C880   1.403       .  A
C879        C884   1.409   1_565  A
C880        C881   1.391       .  A
C880        H889   1.084       .  S
C881        C882   1.399       .  A
C881        H890   1.084       .  S
C882        C888   1.398       .  A
C882        C883   1.411       .  A
C883        C885   1.403   1_565  A
C883        C884   1.409   1_565  A
C884        H891   1.084       .  S
C885        C886   1.403   1_545  A
C885        H892   1.084       .  S
C886        C887   1.414       .  A
C886        H893   1.080       .  S
C887        C888   1.410       .  A
C888        H894   1.081       .  S
C895        C896   1.406       .  A
C895        C900   1.410       .  A
C896        C897   1.398       .  A
C896        H905   1.083       .  S
C897        C898   1.402       .  A
C897        H906   1.083       .  S
C898        C904   1.405       .  A
C898        C899   1.413       .  A
C899        C901   1.405       .  A
C899        C900   1.407       .  A
C900        H907   1.084       .  S
C901        C902   1.401       .  A
C901        H908   1.083       .  S
C902        C903   1.402       .  A
C902        H909   1.083       .  S
C903        C904   1.405       .  A
C904        H910   1.084       .  S
C911        C912   1.409       .  A
C911        C916   1.408       .  A
C912        C913   1.402       .  A
C912        H921   1.082       .  S
C913        C914   1.404       .  A
C913        H922   1.084       .  S
C914        C920   1.410       .  A
C914        C915   1.413       .  A
C915        C917   1.400       .  A
C915        C916   1.404       .  A
C916        H923   1.084       .  S
C917        C918   1.395       .  A
C917        H924   1.084       .  S
C918        C919   1.408       .  A
C918        H925   1.083       .  S
C919        C920   1.412       .  A
C920        H926   1.084       .  S
C927        C928   1.405       .  A
C927        C932   1.407       .  A
C928        C929   1.396       .  A
C928        H937   1.083       .  S
C929        C930   1.401       .  A
C929        H938   1.084       .  S
C930        C936   1.404       .  A
C930        C931   1.415       .  A
C931        C933   1.404       .  A
C931        C932   1.408       .  A
C932        H939   1.085       .  S
C933        C934   1.400       .  A
C933        H940   1.083       .  S
C934        C935   1.403       .  A
C934        H941   1.083       .  S
C935        C936   1.404       .  A
C936        H942   1.085       .  S
C943        C944   1.409       .  A
C943        C948   1.409   1_554  A
C944        C945   1.400       .  A
C944        H953   1.083       .  S
C945        C946   1.402       .  A
C945        H954   1.084       .  S
C946        C952   1.409       .  A
C946        C947   1.412       .  A
C947        C949   1.400   1_554  A
C947        C948   1.409   1_554  A
C948        H955   1.084       .  S
C949        C950   1.398   1_556  A
C949        H956   1.084       .  S
C950        C951   1.411       .  A
C950        H957   1.082   1_554  S
C951        C952   1.413       .  A
C952        H958   1.083       .  S
C959        C960   1.408       .  A
C959        C964   1.413       .  A
C960        C961   1.396       .  A
C960        H969   1.083       .  S
C961        C962   1.401       .  A
C961        H970   1.084       .  S
C962        C968   1.405   1_556  A
C962        C963   1.413       .  A
C963        C965   1.407       .  A
C963        C964   1.413       .  A
C964        H971   1.084       .  S
C965        C966   1.405   1_556  A
C965        H972   1.083       .  S
C966        C967   1.406       .  A
C966        H973   1.083       .  S
C967        C968   1.408       .  A
C968        H974   1.084       .  S
C975        C976   1.403       .  A
C975        C980   1.407   1_565  A
C976        C977   1.405       .  A
C976        H985   1.083       .  S
C977        C978   1.408   1_565  A
C977        H986   1.084       .  S
C978        C984   1.405       .  A
C978        C979   1.412       .  A
C979        C981   1.402       .  A
C979        C980   1.392       .  A
C980        H987   1.085       .  S
C981        C982   1.391       .  A
C981        H988   1.085       .  S
C982        C983   1.399       .  A
C982        H989   1.083       .  S
C983        C984   1.406       .  A
C984        H990   1.085       .  S
C991        C992   1.407       .  A
C991        C996   1.407       .  A
C992        C993   1.405       .  A
C992       H1001   1.083   1_565  S
C993        C994   1.406       .  A
C993       H1002   1.083   1_565  S
C994       C1000   1.412       .  A
C994        C995   1.414       .  A
C995        C997   1.400       .  A
C995        C996   1.400       .  A
C996       H1003   1.085       .  S
C997        C998   1.393       .  A
C997       H1004   1.084       .  S
C998        C999   1.403       .  A
C998       H1005   1.084       .  S
C999       C1000   1.408       .  A
C1000      H1006   1.084       .  S
C1007      C1008   1.406       .  A
C1007      C1012   1.414       .  A
C1008      C1009   1.395       .  A
C1008      H1017   1.083       .  S
C1009      C1010   1.401       .  A
C1009      H1018   1.084       .  S
C1010      C1016   1.402       .  A
C1010      C1011   1.412       .  A
C1011      C1013   1.410   1_554  A
C1011      C1012   1.414       .  A
C1012      H1019   1.084       .  S
C1013      C1014   1.409       .  A
C1013      H1020   1.084       .  S
C1014      C1015   1.403   1_556  A
C1014      H1021   1.083       .  S
C1015      C1016   1.407       .  A
C1016      H1022   1.086       .  S
C1023      C1024   1.406   1_554  A
C1023      C1028   1.413       .  A
C1024      C1025   1.397       .  A
C1024      H1033   1.083       .  S
C1025      C1026   1.403       .  A
C1025      H1034   1.084       .  S
C1026      C1032   1.404       .  A
C1026      C1027   1.409   1_556  A
C1027      C1029   1.403       .  A
C1027      C1028   1.408       .  A
C1028      H1035   1.085       .  S
C1029      C1030   1.402       .  A
C1029      H1036   1.084       .  S
C1030      C1031   1.412   1_554  A
C1030      H1037   1.081       .  S
C1031      C1032   1.416       .  A
C1032      H1038   1.082       .  S
C1039      C1040   1.408       .  A
C1039      C1044   1.412       .  A
C1040      C1041   1.392       .  A
C1040      H1049   1.083       .  S
C1041      C1042   1.398       .  A
C1041      H1050   1.084       .  S
C1042      C1048   1.403       .  A
C1042      C1043   1.414       .  A
C1043      C1045   1.407   1_455  A
C1043      C1044   1.416       .  A
C1044      H1051   1.084       .  S
C1045      C1046   1.405       .  A
C1045      H1052   1.084       .  S
C1046      C1047   1.408       .  A
C1046      H1053   1.083       .  S
C1047      C1048   1.405   1_655  A
C1048      H1054   1.084       .  S
C1055      C1056   1.405       .  A
C1055      C1060   1.410       .  A
C1056      C1057   1.393       .  A
C1056      H1065   1.083       .  S
C1057      C1058   1.399       .  A
C1057      H1066   1.084       .  S
C1058      C1064   1.402       .  A
C1058      C1059   1.414       .  A
C1059      C1061   1.406   1_545  A
C1059      C1060   1.414       .  A
C1060      H1067   1.084       .  S
C1061      C1062   1.405       .  A
C1061      H1068   1.083       .  S
C1062      C1063   1.407   1_565  A
C1062      H1069   1.083       .  S
C1063      C1064   1.406       .  A
C1064      H1070   1.085       .  S
C1071      C1072   1.406   1_556  A
C1071      C1076   1.406       .  A
C1072      C1073   1.410       .  A
C1072      H1081   1.083       .  S
C1073      C1074   1.409   1_554  A
C1073      H1082   1.083       .  S
C1074      C1080   1.417       .  A
C1074      C1075   1.413       .  A
C1075      C1077   1.398       .  A
C1075      C1076   1.400       .  A
C1076      H1083   1.083       .  S
C1077      C1078   1.391       .  A
C1077      H1084   1.084       .  S
C1078      C1079   1.405       .  A
C1078      H1085   1.083       .  S
C1079      C1080   1.412       .  A
C1080      H1086   1.083       .  S
C1087      C1088   1.402       .  A
C1087      C1092   1.401       .  A
C1088      C1089   1.400       .  A
C1088      H1097   1.083       .  S
C1089      C1090   1.405       .  A
C1089      H1098   1.084       .  S
C1090      C1096   1.406       .  A
C1090      C1091   1.415       .  A
C1091      C1093   1.399       .  A
C1091      C1092   1.402       .  A
C1092      H1099   1.085       .  S
C1093      C1094   1.394       .  A
C1093      H1100   1.084       .  S
C1094      C1095   1.407       .  A
C1094      H1101   1.083       .  S
C1095      C1096   1.409       .  A
C1096      H1102   1.084       .  S
C1103      C1104   1.404       .  A
C1103      C1108   1.403       .  A
C1104      C1105   1.400       .  A
C1104      H1113   1.083       .  S
C1105      C1106   1.404       .  A
C1105      H1114   1.084       .  S
C1106      C1112   1.406       .  A
C1106      C1107   1.416       .  A
C1107      C1109   1.401       .  A
C1107      C1108   1.401       .  A
C1108      H1115   1.085       .  S
C1109      C1110   1.394       .  A
C1109      H1116   1.084       .  S
C1110      C1111   1.402       .  A
C1110      H1117   1.084       .  S
C1111      C1112   1.404       .  A
C1112      H1118   1.085       .  S
C1119      C1120   1.411       .  A
C1119      C1124   1.412       .  A
C1120      C1121   1.395       .  A
C1120      H1129   1.082       .  S
C1121      C1122   1.399       .  A
C1121      H1130   1.084       .  S
C1122      C1128   1.403       .  A
C1122      C1123   1.411       .  A
C1123      C1125   1.402       .  A
C1123      C1124   1.406       .  A
C1124      H1131   1.082       .  S
C1125      C1126   1.399       .  A
C1125      H1132   1.084       .  S
C1126      C1127   1.410       .  A
C1126      H1133   1.082       .  S
C1127      C1128   1.409       .  A
C1128      H1134   1.083       .  S
C1135      C1136   1.405       .  A
C1135      C1140   1.410       .  A
C1136      C1137   1.407       .  A
C1136      H1145   1.083   1_556  S
C1137      C1138   1.409       .  A
C1137      H1146   1.083       .  S
C1138      C1144   1.412       .  A
C1138      C1139   1.412       .  A
C1139      C1141   1.402       .  A
C1139      C1140   1.399       .  A
C1140      H1147   1.085       .  S
C1141      C1142   1.394       .  A
C1141      H1148   1.084       .  S
C1142      C1143   1.400       .  A
C1142      H1149   1.084       .  S
C1143      C1144   1.409       .  A
C1144      H1150   1.084       .  S
C1151      C1152   1.409       .  A
C1151      C1156   1.415       .  A
C1152      C1153   1.401       .  A
C1152      H1161   1.082       .  S
C1153      C1154   1.404       .  A
C1153      H1162   1.082   1_655  S
C1154      C1160   1.405   1_655  A
C1154      C1155   1.410       .  A
C1155      C1157   1.405       .  A
C1155      C1156   1.403       .  A
C1156      H1163   1.083       .  S
C1157      C1158   1.400       .  A
C1157      H1164   1.084       .  S
C1158      C1159   1.403   1_655  A
C1158      H1165   1.083       .  S
C1159      C1160   1.412       .  A
C1160      H1166   1.084       .  S
C1167      C1168   1.410       .  A
C1167      C1172   1.414       .  A
C1168      C1169   1.395       .  A
C1168      H1177   1.082       .  S
C1169      C1170   1.399       .  A
C1169      H1178   1.083       .  S
C1170      C1176   1.403       .  A
C1170      C1171   1.413       .  A
C1171      C1173   1.406       .  A
C1171      C1172   1.409       .  A
C1172      H1179   1.082       .  S
C1173      C1174   1.402       .  A
C1173      H1180   1.083       .  S
C1174      C1175   1.403       .  A
C1174      H1181   1.083       .  S
C1175      C1176   1.403       .  A
C1176      H1182   1.084       .  S
C1183      C1184   1.403       .  A
C1183      C1188   1.404       .  A
C1184      C1185   1.398       .  A
C1184      H1193   1.083       .  S
C1185      C1186   1.403       .  A
C1185      H1194   1.084       .  S
C1186      C1192   1.407       .  A
C1186      C1187   1.415       .  A
C1187      C1189   1.401       .  A
C1187      C1188   1.408       .  A
C1188      H1195   1.085       .  S
C1189      C1190   1.398       .  A
C1189      H1196   1.084       .  S
C1190      C1191   1.410       .  A
C1190      H1197   1.082       .  S
C1191      C1192   1.408       .  A
C1192      H1198   1.084       .  S
C1199      C1200   1.411       .  A
C1199      C1204   1.408       .  A
C1200      C1201   1.405   1_565  A
C1200      H1209   1.082       .  S
C1201      C1202   1.404   1_545  A
C1201      H1210   1.083       .  S
C1202      C1208   1.416   1_565  A
C1202      C1203   1.415       .  A
C1203      C1205   1.398       .  A
C1203      C1204   1.405       .  A
C1204      H1211   1.083       .  S
C1205      C1206   1.392       .  A
C1205      H1212   1.083       .  S
C1206      C1207   1.405       .  A
C1206      H1213   1.084       .  S
C1207      C1208   1.409   1_565  A
C1208      H1214   1.083       .  S
C1215      C1216   1.403       .  A
C1215      C1220   1.403       .  A
C1216      C1217   1.402       .  A
C1216      H1225   1.083       .  S
C1217      C1218   1.406       .  A
C1217      H1226   1.084       .  S
C1218      C1224   1.409       .  A
C1218      C1219   1.415       .  A
C1219      C1221   1.401       .  A
C1219      C1220   1.404       .  A
C1220      H1227   1.085       .  S
C1221      C1222   1.397       .  A
C1221      H1228   1.084       .  S
C1222      C1223   1.406       .  A
C1222      H1229   1.083       .  S
C1223      C1224   1.409       .  A
C1224      H1230   1.084       .  S
C1231      C1232   1.404       .  A
C1231      C1236   1.408       .  A
C1232      C1233   1.404       .  A
C1232      H1241   1.083       .  S
C1233      C1234   1.407       .  A
C1233      H1242   1.083       .  S
C1234      C1240   1.409       .  A
C1234      C1235   1.412       .  A
C1235      C1237   1.400       .  A
C1235      C1236   1.398       .  A
C1236      H1243   1.085       .  S
C1237      C1238   1.393       .  A
C1237      H1244   1.084       .  S
C1238      C1239   1.406       .  A
C1238      H1245   1.083       .  S
C1239      C1240   1.411       .  A
C1240      H1246   1.084       .  S
C1247      C1248   1.407       .  A
C1247      C1252   1.414       .  A
C1248      C1249   1.393       .  A
C1248      H1257   1.084       .  S
C1249      C1250   1.399       .  A
C1249      H1258   1.084       .  S
C1250      C1256   1.404       .  A
C1250      C1251   1.412       .  A
C1251      C1253   1.407       .  A
C1251      C1252   1.419       .  A
C1252      H1259   1.084       .  S
C1253      C1254   1.409       .  A
C1253      H1260   1.084       .  S
C1254      C1255   1.412       .  A
C1254      H1261   1.081       .  S
C1255      C1256   1.412       .  A
C1256      H1262   1.082       .  S
C1263      C1264   1.410       .  A
C1263      C1268   1.416       .  A
C1264      C1265   1.393       .  A
C1264      H1273   1.083       .  S
C1265      C1266   1.397       .  A
C1265      H1274   1.084       .  S
C1266      C1272   1.405       .  A
C1266      C1267   1.413       .  A
C1267      C1269   1.408       .  A
C1267      C1268   1.420       .  A
C1268      H1275   1.084       .  S
C1269      C1270   1.409       .  A
C1269      H1276   1.084       .  S
C1270      C1271   1.408       .  A
C1270      H1277   1.083       .  S
C1271      C1272   1.408       .  A
C1272      H1278   1.085       .  S
C1279      C1280   1.407       .  A
C1279      C1284   1.412       .  A
C1280      C1281   1.397       .  A
C1280      H1289   1.083       .  S
C1281      C1282   1.401       .  A
C1281      H1290   1.080       .  S
C1282      C1288   1.405       .  A
C1282      C1283   1.412       .  A
C1283      C1285   1.404       .  A
C1283      C1284   1.409       .  A
C1284      H1291   1.083       .  S
C1285      C1286   1.402       .  A
C1285      H1292   1.083       .  S
C1286      C1287   1.406       .  A
C1286      H1293   1.083       .  S
C1287      C1288   1.408       .  A
C1288      H1294   1.084       .  S
C1295      C1296   1.404       .  A
C1295      C1300   1.414       .  A
C1296      C1297   1.391       .  A
C1296      H1305   1.083       .  S
C1297      C1298   1.400       .  A
C1297      H1306   1.084   1_554  S
C1298      C1304   1.394       .  A
C1298      C1299   1.410       .  A
C1299      C1301   1.410       .  A
C1299      C1300   1.409       .  A
C1300      H1307   1.083       .  S
C1301      C1302   1.407       .  A
C1301      H1308   1.083       .  S
C1302      C1303   1.403       .  A
C1302      H1309   1.083       .  S
C1303      C1304   1.409       .  A
C1304      H1310   1.085   1_554  S
C1311      C1312   1.401       .  A
C1311      C1316   1.410       .  A
C1312      C1313   1.392       .  A
C1312      H1321   1.083       .  S
C1313      C1314   1.401       .  A
C1313      H1322   1.084       .  S
C1314      C1320   1.396       .  A
C1314      C1315   1.413       .  A
C1315      C1317   1.409       .  A
C1315      C1316   1.411       .  A
C1316      H1323   1.084       .  S
C1317      C1318   1.407       .  A
C1317      H1324   1.084       .  S
C1318      C1319   1.405       .  A
C1318      H1325   1.083       .  S
C1319      C1320   1.406       .  A
C1320      H1326   1.086       .  S
C1327      C1328   1.411       .  A
C1327      C1332   1.415       .  A
C1328      C1329   1.397       .  A
C1328      H1337   1.081       .  S
C1329      C1330   1.400       .  A
C1329      H1338   1.083       .  S
C1330      C1336   1.406       .  A
C1330      C1331   1.412       .  A
C1331      C1333   1.405       .  A
C1331      C1332   1.410       .  A
C1332      H1339   1.082       .  S
C1333      C1334   1.402       .  A
C1333      H1340   1.083       .  S
C1334      C1335   1.405       .  A
C1334      H1341   1.083       .  S
C1335      C1336   1.408       .  A
C1336      H1342   1.084       .  S
C1343      C1344   1.409       .  A
C1343      C1348   1.410       .  A
C1344      C1345   1.394       .  A
C1344      H1353   1.083       .  S
C1345      C1346   1.398       .  A
C1345      H1354   1.084       .  S
C1346      C1352   1.404       .  A
C1346      C1347   1.415       .  A
C1347      C1349   1.405       .  A
C1347      C1348   1.413       .  A
C1348      H1355   1.084       .  S
C1349      C1350   1.403       .  A
C1349      H1356   1.084       .  S
C1350      C1351   1.408       .  A
C1350      H1357   1.083       .  S
C1351      C1352   1.405       .  A
C1352      H1358   1.085       .  S
C1359      C1360   1.414       .  A
C1359      C1364   1.409       .  A
C1360      C1361   1.401       .  A
C1360      H1369   1.082       .  S
C1361      C1362   1.401       .  A
C1361      H1370   1.084       .  S
C1362      C1368   1.411       .  A
C1362      C1363   1.414       .  A
C1363      C1365   1.399       .  A
C1363      C1364   1.406       .  A
C1364      H1371   1.082       .  S
C1365      C1366   1.394       .  A
C1365      H1372   1.084       .  S
C1366      C1367   1.407       .  A
C1366      H1373   1.084       .  S
C1367      C1368   1.407       .  A
C1368      H1374   1.084       .  S
C1375      C1376   1.409       .  A
C1375      C1380   1.412       .  A
C1376      C1377   1.395       .  A
C1376      H1385   1.083       .  S
C1377      C1378   1.399       .  A
C1377      H1386   1.084       .  S
C1378      C1384   1.406       .  A
C1378      C1379   1.414       .  A
C1379      C1381   1.406       .  A
C1379      C1380   1.416       .  A
C1380      H1387   1.084       .  S
C1381      C1382   1.406       .  A
C1381      H1388   1.084       .  S
C1382      C1383   1.408       .  A
C1382      H1389   1.082       .  S
C1383      C1384   1.408       .  A
C1384      H1390   1.085       .  S
C1391      C1392   1.404       .  A
C1391      C1396   1.406       .  A
C1392      C1393   1.404       .  A
C1392      H1401   1.083       .  S
C1393      C1394   1.407       .  A
C1393      H1402   1.083       .  S
C1394      C1400   1.408       .  A
C1394      C1395   1.413       .  A
C1395      C1397   1.402       .  A
C1395      C1396   1.397       .  A
C1396      H1403   1.085       .  S
C1397      C1398   1.393       .  A
C1397      H1404   1.084       .  S
C1398      C1399   1.400       .  A
C1398      H1405   1.084       .  S
C1399      C1400   1.407       .  A
C1400      H1406   1.084       .  S
C1407      C1408   1.407       .  A
C1407      C1412   1.418       .  A
C1408      C1409   1.395       .  A
C1408      H1417   1.083       .  S
C1409      C1410   1.401       .  A
C1409      H1418   1.084   1_655  S
C1410      C1416   1.400       .  A
C1410      C1411   1.409       .  A
C1411      C1413   1.412       .  A
C1411      C1412   1.413       .  A
C1412      H1419   1.083       .  S
C1413      C1414   1.410       .  A
C1413      H1420   1.083       .  S
C1414      C1415   1.403       .  A
C1414      H1421   1.082       .  S
C1415      C1416   1.411       .  A
C1416      H1422   1.085   1_655  S
C1423      C1424   1.405       .  A
C1423      C1428   1.411       .  A
C1424      C1425   1.402       .  A
C1424      H1433   1.083       .  S
C1425      C1426   1.406       .  A
C1425      H1434   1.083       .  S
C1426      C1432   1.409       .  A
C1426      C1427   1.410       .  A
C1427      C1429   1.403       .  A
C1427      C1428   1.409       .  A
C1428      H1435   1.084       .  S
C1429      C1430   1.402       .  A
C1429      H1436   1.080       .  S
C1430      C1431   1.409       .  A
C1430      H1437   1.082       .  S
C1431      C1432   1.417       .  A
C1432      H1438   1.082       .  S
C1439      C1440   1.410       .  A
C1439      C1444   1.410       .  A
C1440      C1441   1.392       .  A
C1440      H1449   1.083       .  S
C1441      C1442   1.397       .  A
C1441      H1450   1.083       .  S
C1442      C1448   1.404       .  A
C1442      C1443   1.413       .  A
C1443      C1445   1.403       .  A
C1443      C1444   1.414       .  A
C1444      H1451   1.083       .  S
C1445      C1446   1.403       .  A
C1445      H1452   1.083       .  S
C1446      C1447   1.411       .  A
C1446      H1453   1.082       .  S
C1447      C1448   1.408       .  A
C1448      H1454   1.082       .  S
C1455      C1456   1.408       .  A
C1455      C1460   1.413       .  A
C1456      C1457   1.394       .  A
C1456      H1465   1.082       .  S
C1457      C1458   1.399       .  A
C1457      H1466   1.084       .  S
C1458      C1464   1.404       .  A
C1458      C1459   1.413       .  A
C1459      C1461   1.407       .  A
C1459      C1460   1.414       .  A
C1460      H1467   1.084       .  S
C1461      C1462   1.405       .  A
C1461      H1468   1.084       .  S
C1462      C1463   1.406       .  A
C1462      H1469   1.083       .  S
C1463      C1464   1.407       .  A
C1464      H1470   1.085       .  S
C1471      C1472   1.405       .  A
C1471      C1476   1.411       .  A
C1472      C1473   1.403       .  A
C1472      H1481   1.083       .  S
C1473      C1474   1.406       .  A
C1473      H1482   1.083       .  S
C1474      C1480   1.409       .  A
C1474      C1475   1.410       .  A
C1475      C1477   1.402       .  A
C1475      C1476   1.406       .  A
C1476      H1483   1.084       .  S
C1477      C1478   1.399       .  A
C1477      H1484   1.081       .  S
C1478      C1479   1.408       .  A
C1478      H1485   1.081       .  S
C1479      C1480   1.417       .  A
C1480      H1486   1.082       .  S
C1487      C1488   1.404       .  A
C1487      C1492   1.415       .  A
C1488      C1489   1.399       .  A
C1488      H1497   1.083       .  S
C1489      C1490   1.404       .  A
C1489      H1498   1.083   1_545  S
C1490      C1496   1.401       .  A
C1490      C1491   1.410       .  A
C1491      C1493   1.409       .  A
C1491      C1492   1.406       .  A
C1492      H1499   1.084       .  S
C1493      C1494   1.405       .  A
C1493      H1500   1.083       .  S
C1494      C1495   1.403       .  A
C1494      H1501   1.083       .  S
C1495      C1496   1.411       .  A
C1496      H1502   1.083   1_545  S
C1503      C1504   1.409       .  A
C1503      C1508   1.414       .  A
C1504      C1505   1.400       .  A
C1504      H1513   1.082       .  S
C1505      C1506   1.402       .  A
C1505      H1514   1.083       .  S
C1506      C1512   1.407       .  A
C1506      C1507   1.412       .  A
C1507      C1509   1.404       .  A
C1507      C1508   1.406       .  A
C1508      H1515   1.083       .  S
C1509      C1510   1.399       .  A
C1509      H1516   1.083       .  S
C1510      C1511   1.403       .  A
C1510      H1517   1.084       .  S
C1511      C1512   1.406       .  A
C1512      H1518   1.084       .  S
C1519      C1520   1.408       .  A
C1519      C1524   1.407       .  A
C1520      C1521   1.403       .  A
C1520      H1529   1.084       .  S
C1521      C1522   1.405       .  A
C1521      H1530   1.083       .  S
C1522      C1528   1.412       .  A
C1522      C1523   1.412       .  A
C1523      C1525   1.398       .  A
C1523      C1524   1.406       .  A
C1524      H1531   1.085       .  S
C1525      C1526   1.396       .  A
C1525      H1532   1.082       .  S
C1526      C1527   1.412       .  A
C1526      H1533   1.082       .  S
C1527      C1528   1.415       .  A
C1528      H1534   1.083       .  S
C1535      C1536   1.412       .  A
C1535      C1540   1.406       .  A
C1536      C1537   1.403       .  A
C1536      H1545   1.082       .  S
C1537      C1538   1.403       .  A
C1537      H1546   1.084       .  S
C1538      C1544   1.411       .  A
C1538      C1539   1.413       .  A
C1539      C1541   1.396       .  A
C1539      C1540   1.398       .  A
C1540      H1547   1.083       .  S
C1541      C1542   1.389       .  A
C1541      H1548   1.084       .  S
C1542      C1543   1.408       .  A
C1542      H1549   1.083       .  S
C1543      C1544   1.409       .  A
C1544      H1550   1.084       .  S
C1551      C1552   1.412       .  A
C1551      C1556   1.412       .  A
C1552      C1553   1.394       .  A
C1552      H1561   1.081       .  S
C1553      C1554   1.398       .  A
C1553      H1562   1.084       .  S
C1554      C1560   1.402       .  A
C1554      C1555   1.413       .  A
C1555      C1557   1.404       .  A
C1555      C1556   1.407       .  A
C1556      H1563   1.082       .  S
C1557      C1558   1.400       .  A
C1557      H1564   1.083       .  S
C1558      C1559   1.403       .  A
C1558      H1565   1.083       .  S
C1559      C1560   1.402       .  A
C1560      H1566   1.084       .  S
C1567      C1568   1.406       .  A
C1567      C1572   1.406       .  A
C1568      C1569   1.407       .  A
C1568      H1577   1.083       .  S
C1569      C1570   1.408       .  A
C1569      H1578   1.083       .  S
C1570      C1576   1.414       .  A
C1570      C1571   1.413       .  A
C1571      C1573   1.398       .  A
C1571      C1572   1.400       .  A
C1572      H1579   1.084       .  S
C1573      C1574   1.391       .  A
C1573      H1580   1.084       .  S
C1574      C1575   1.408       .  A
C1574      H1581   1.083       .  S
C1575      C1576   1.413       .  A
C1576      H1582   1.083       .  S
C1583      C1584   1.414       .  A
C1583      C1588   1.415       .  A
C1584      C1585   1.397       .  A
C1584      H1593   1.081       .  S
C1585      C1586   1.398       .  A
C1585      H1594   1.084       .  S
C1586      C1592   1.407       .  A
C1586      C1587   1.413       .  A
C1587      C1589   1.405       .  A
C1587      C1588   1.412       .  A
C1588      H1595   1.081       .  S
C1589      C1590   1.402       .  A
C1589      H1596   1.083       .  S
C1590      C1591   1.405       .  A
C1590      H1597   1.084       .  S
C1591      C1592   1.406       .  A
C1592      H1598   1.084       .  S
C1599      C1600   1.411       .  A
C1599      C1604   1.405       .  A
C1600      C1601   1.392       .  A
C1600      H1609   1.083       .  S
C1601      C1602   1.396       .  A
C1601      H1610   1.083       .  S
C1602      C1608   1.405       .  A
C1602      C1603   1.415       .  A
C1603      C1605   1.399       .  A
C1603      C1604   1.411       .  A
C1604      H1611   1.084       .  S
C1605      C1606   1.399       .  A
C1605      H1612   1.083       .  S
C1606      C1607   1.412       .  A
C1606      H1613   1.082       .  S
C1607      C1608   1.405       .  A
C1608      H1614   1.083       .  S
