geometry optimzed in LAMMPS
_audit_creation_date              2020-11-30 
_audit_creation_method            'lammps2cif' 
_symmetry_space_group_name_H-M    'P1' 
_symmetry_Int_Tables_number       1 
_symmetry_cell_setting            triclinic 
loop_ 
_symmetry_equiv_pos_as_xyz 
  x,y,z 
_cell_length_a                    32.38857269241299 
_cell_length_b                    32.400471019181865 
_cell_length_c                    32.4253013164097 
_cell_angle_alpha                 88.25673896128387 
_cell_angle_beta                  88.99810941144572 
_cell_angle_gamma                 89.08630513955788 
loop_ 
_atom_site_label 
_atom_site_type_symbol 
_atom_site_fract_x 
_atom_site_fract_y 
_atom_site_fract_z 
_atom_site_charge 
C1          C  0.64224476  0.68351075  0.91174816     0.05450
C2          C  0.66609632  0.71513891  0.89140310    -0.10690
C3          C  0.70661932  0.70599912  0.87434442     0.02960
C4          C  0.72019724  0.66411667  0.87976139    -0.09220
C5          C  0.69606532  0.63501906  0.90179966     0.05450
C6          C  0.65471872  0.64294208  0.90842036    -0.08640
H7          H  0.65339239  0.74610781  0.89043854     0.11040
H8          H  0.75078713  0.65426146  0.87028692     0.08570
H9          H  0.63648618  0.61920606  0.92437936     0.08420
C10         C  0.84664142  0.69517712  0.70054475     0.05450
C11         C  0.82323913  0.72235268  0.72595197    -0.10690
C12         C  0.81042207  0.70976490  0.76716509     0.02960
C13         C  0.82043461  0.66807006  0.77918841    -0.09220
C14         C  0.84585077  0.64325117  0.75401785     0.05450
C15         C  0.85352631  0.65491664  0.71359292    -0.08640
H16         H  0.81721142  0.75337180  0.71421640     0.11040
H17         H  0.81189014  0.65569327  0.80935064     0.08570
H18         H  0.87319586  0.63506289  0.69479986     0.08420
C19         C  0.70320005  0.81494992  0.76781176     0.05450
C20         C  0.66159552  0.82665481  0.77934480    -0.10690
C21         C  0.63368049  0.84293100  0.74922153     0.02960
C22         C  0.64333833  0.83823609  0.70827210    -0.09220
C23         C  0.68431005  0.84224354  0.69781719     0.05450
C24         C  0.71445468  0.82611345  0.72577178    -0.08640
H25         H  0.65081777  0.82445258  0.81098037     0.11040
H26         H  0.62063377  0.84872660  0.68568739     0.08570
H27         H  0.74596915  0.82360795  0.71468920     0.08420
C28         C  0.72139347  0.77883520  0.83955351     0.04610
C29         C  0.73607340  0.73842067  0.85342052     0.04610
C30         C  0.77702437  0.72604017  0.83937832     0.04610
C31         C  0.78911044  0.73962579  0.79811887     0.04610
C32         C  0.77486759  0.78024679  0.78495724     0.04610
C33         C  0.73427026  0.79357625  0.79870365     0.04610
C34         C  0.33530904  0.37777588  0.89542229     0.05450
C35         C  0.30417255  0.35015647  0.88463376    -0.10690
C36         C  0.31430460  0.30859400  0.87433649     0.02960
C37         C  0.35713681  0.29744123  0.87616497    -0.09220
C38         C  0.38686990  0.32618762  0.88732983     0.05450
C39         C  0.37622582  0.36712846  0.89051536    -0.08640
H40         H  0.27272212  0.36140283  0.88548410     0.11040
H41         H  0.36795666  0.26646083  0.87056492     0.08570
H42         H  0.39952446  0.38857049  0.90015937     0.08420
C43         C  0.84082541  0.38541484  0.37733247     0.05450
C44         C  0.82284217  0.35617316  0.35172950    -0.10690
C45         C  0.81573165  0.31430566  0.36616388     0.02960
C46         C  0.82448202  0.30557773  0.40853806    -0.09220
C47         C  0.84167505  0.33594593  0.43328436     0.05450
C48         C  0.84762622  0.37543875  0.41805644    -0.08640
H49         H  0.81577788  0.36629058  0.32062726     0.11040
H50         H  0.81924075  0.27533467  0.42232893     0.08570
H51         H  0.86260921  0.39767181  0.43717628     0.08420
C52         C  0.37814014  0.82248059  0.38758036     0.05450
C53         C  0.36736585  0.82648599  0.42831451    -0.10690
C54         C  0.32645965  0.83084440  0.43904276     0.02960
C55         C  0.29543205  0.81923331  0.41153518    -0.09220
C56         C  0.30563074  0.80889122  0.36984670     0.05450
C57         C  0.34860755  0.81057602  0.35900430    -0.08640
H58         H  0.39062036  0.83646801  0.44962347     0.11040
H59         H  0.26415862  0.81905284  0.42319785     0.08570
H60         H  0.35978109  0.80407426  0.32836969     0.08420
C61         C  0.81344691  0.82039064  0.37813777     0.05450
C62         C  0.85530979  0.80882938  0.38568316    -0.10690
C63         C  0.88126200  0.83460438  0.40737468     0.02960
C64         C  0.86857847  0.87401269  0.41689989    -0.09220
C65         C  0.82888685  0.88751251  0.40912522     0.05450
C66         C  0.80135963  0.86158089  0.38888135    -0.08640
H67         H  0.86748987  0.77905268  0.37724997     0.11040
H68         H  0.88858701  0.89292974  0.43492804     0.08570
H69         H  0.77055403  0.87333304  0.38314230     0.08420
C70         C  0.80730793  0.81271744  0.77248983     0.05450
C71         C  0.79700013  0.85521712  0.76506354    -0.10690
C72         C  0.82727989  0.88337724  0.75095537     0.02960
C73         C  0.86831552  0.87198145  0.75029314    -0.09220
C74         C  0.87831203  0.83068407  0.75147336     0.05450
C75         C  0.84975590  0.80171946  0.76685695    -0.08640
H76         H  0.76568200  0.86662665  0.76788430     0.11040
H77         H  0.89081116  0.89364591  0.73733773     0.08570
H78         H  0.86100238  0.77054398  0.77172771     0.08420
C79         C  0.81741555  0.30249909  0.88042995     0.05450
C80         C  0.80525785  0.31211296  0.92162142    -0.10690
C81         C  0.83233450  0.33281160  0.94722408     0.02960
C82         C  0.87316741  0.33689757  0.93615219    -0.09220
C83         C  0.88506308  0.33125156  0.89587920     0.05450
C84         C  0.85914584  0.31102510  0.86888205    -0.08640
H85         H  0.77424736  0.30677533  0.93302489     0.11040
H86         H  0.89324271  0.35398510  0.95593370     0.08570
H87         H  0.87079813  0.30540504  0.83812484     0.08420
C88         C  0.87928637  0.68059756  0.88729948     0.05450
C89         C  0.86963416  0.68066942  0.92874254    -0.10690
C90         C  0.82851764  0.68155682  0.94017691     0.02960
C91         C  0.79910404  0.69929486  0.91294366    -0.09220
C92         C  0.80959425  0.70876273  0.87062280     0.05450
C93         C  0.85160959  0.69953123  0.85893592    -0.08640
H94         H  0.89160935  0.66644133  0.95013950     0.11040
H95         H  0.76817174  0.70358114  0.92495064     0.08570
H96         H  0.86318201  0.70527868  0.82803383     0.08420
C97         C  0.13189039  0.82715083  0.40560484     0.05450
C98         C  0.14178067  0.86784194  0.40924149    -0.10690
C99         C  0.18142185  0.88047814  0.40134843     0.02960
C100        C  0.21005685  0.85460093  0.38048480    -0.09220
C101        C  0.20034591  0.81275211  0.37226128     0.05450
C102        C  0.15943482  0.80005243  0.38471220    -0.08640
H103        H  0.12067571  0.88804470  0.42609682     0.11040
H104        H  0.24028649  0.86661943  0.37298072     0.08570
H105        H  0.14907600  0.76913000  0.37990055     0.08420
C106        C  0.19651220  0.89537361  0.75140199     0.05450
C107        C  0.22340942  0.86769626  0.77270613    -0.10690
C108        C  0.21149011  0.82607382  0.78300822     0.02960
C109        C  0.17010071  0.81583353  0.77329977    -0.09220
C110        C  0.14367091  0.84518174  0.75344432     0.05450
C111        C  0.15613029  0.88506057  0.74601575    -0.08640
H112        H  0.25379583  0.87858506  0.77937153     0.11040
H113        H  0.15866919  0.78507389  0.77945660     0.08570
H114        H  0.13599033  0.90646473  0.72893150     0.08420
O115        O  0.95369750  0.81682128  0.62016436    -0.77810
O116        O  0.06120766  0.82522861  0.53675183    -0.77840
O117        O  0.05751131  0.77598373  0.67517635    -0.77840
O118        O  0.98670964  0.77904196  0.50062988    -0.77790
O119        O  0.06532324  0.82864810  0.62961967    -0.77910
O120        O  0.94013630  0.81858916  0.53339461    -0.77830
O121        O  0.02992679  0.77534959  0.50260610    -0.77810
O122        O  0.97759557  0.77296546  0.66914281    -0.77850
C123        C  0.95510231  0.80278355  0.65745373     1.11880
C124        C  0.05483055  0.80630690  0.50334875     1.11760
C125        C  0.06679559  0.81293495  0.66652922     1.11900
C126        C  0.95575838  0.80533222  0.49972307     1.11780
O127        O  0.93637651  0.74519863  0.55245090    -0.77810
O128        O  0.11172622  0.75635641  0.62391554    -0.77890
O129        O  0.97811682  0.70037261  0.62980442    -0.77820
O130        O  0.05879879  0.70849073  0.52308357    -0.77800
O131        O  0.10554081  0.75346142  0.54382471    -0.77860
O132        O  0.93949561  0.74803479  0.59514934    -0.77820
O133        O  0.97184353  0.70535749  0.50863734    -0.77780
O134        O  0.07148180  0.70187786  0.63599741    -0.77850
Co135      Co  0.97891959  0.79137193  0.56945089     1.51530
Co136      Co  0.08206721  0.79102054  0.58386829     1.51690
Co137      Co  0.02161651  0.73748842  0.64865480     1.51570
Co138      Co  0.00622347  0.73378896  0.54578426     1.51470
O139        O  0.02741345  0.76339503  0.59198702    -1.39750
C140        C  0.93720976  0.71904511  0.52251190     1.11810
C141        C  0.10663609  0.71978456  0.63708750     1.11900
C142        C  0.94297509  0.71742531  0.62175888     1.11830
C143        C  0.09547748  0.72266818  0.52384679     1.11810
C144        C  0.38803011  0.71252576  0.90211800     0.05450
C145        C  0.35646833  0.73799914  0.88663830    -0.10690
C146        C  0.31487851  0.72485502  0.88523852     0.02960
C147        C  0.30803350  0.68275581  0.89654561    -0.09220
C148        C  0.33985928  0.65828466  0.91428099     0.05450
C149        C  0.37964082  0.67279526  0.91569989    -0.08640
H150        H  0.36497072  0.76893312  0.87892660     0.11040
H151        H  0.27805515  0.66918075  0.89395525     0.08570
H152        H  0.40343343  0.65444059  0.93123613     0.08420
C153        C  0.34036504  0.85066772  0.72229170     0.05450
C154        C  0.38012415  0.85172321  0.73685871    -0.10690
C155        C  0.38829898  0.83732361  0.77637436     0.02960
C156        C  0.35658653  0.82188743  0.80164439    -0.09220
C157        C  0.31517537  0.82081705  0.78837253     0.05450
C158        C  0.30859037  0.83224807  0.74630691    -0.08640
H159        H  0.40396732  0.86770463  0.71891549     0.11040
H160        H  0.36479644  0.81398262  0.83258051     0.08570
H161        H  0.27871642  0.82962892  0.73255351     0.08420
C162        C  0.28025086  0.80838002  0.81854926     0.04610
C163        C  0.24182319  0.79429573  0.80320082     0.04610
C164        C  0.22880265  0.75376916  0.81772726     0.04610
C165        C  0.24140123  0.74039020  0.85880888     0.04610
C166        C  0.28005416  0.75517797  0.87255313     0.04610
C167        C  0.29040738  0.79637090  0.86007273     0.04610
C168        C  0.21624184  0.72100693  0.78666695     0.05450
C169        C  0.20871750  0.73021805  0.74392688    -0.10690
C170        C  0.19790434  0.69843697  0.71700519     0.02960
C171        C  0.19928554  0.65774162  0.73069920    -0.09220
C172        C  0.19548065  0.65006269  0.77244722     0.05450
C173        C  0.21084548  0.67888710  0.79945858    -0.08640
H174        H  0.20993996  0.76138149  0.73139242     0.11040
H175        H  0.18882562  0.63417670  0.71018671     0.08570
H176        H  0.21592664  0.66802457  0.83065621     0.08420
O177        O  0.97635127  0.56374483  0.88973194    -0.77810
O178        O  0.04697503  0.45833672  0.87520873    -0.77840
O179        O  0.95641940  0.46181085  0.86675407    -0.77840
O180        O  0.11090792  0.55678705  0.84722381    -0.77790
O181        O  0.99214720  0.40969876  0.84049496    -0.77910
O182        O  0.05867309  0.56723508  0.88906088    -0.77830
O183        O  0.10413173  0.47188782  0.84068060    -0.77810
O184        O  0.92695319  0.54664157  0.85212722    -0.77850
C185        C  0.94019281  0.57034171  0.87830417     1.11880
C186        C  0.08393657  0.44934713  0.86615717     1.11760
C187        C  0.96272831  0.42221025  0.86241325     1.11900
C188        C  0.09471599  0.57536987  0.87730677     1.11780
O189        O  0.05835257  0.61409460  0.81330795    -0.77810
O190        O  0.96676499  0.45803284  0.77992248    -0.77890
O191        O  0.96218015  0.54928313  0.77352618    -0.77820
O192        O  0.07115775  0.48587717  0.75971080    -0.77800
O193        O  0.05113513  0.43217981  0.79379302    -0.77860
O194        O  0.97333200  0.60432573  0.80962260    -0.77820
O195        O  0.07409421  0.56790401  0.76831147    -0.77780
O196        O  0.91171353  0.49049413  0.80453149    -0.77850
Co197      Co  0.01686123  0.58349990  0.84920541     1.51530
Co198      Co  0.00950116  0.46282526  0.82824613     1.51690
Co199      Co  0.96335198  0.50839974  0.81942302     1.51570
Co200      Co  0.08603427  0.52064229  0.80492254     1.51470
O201        O  0.02409970  0.52427934  0.82525974    -1.39750
C202        C  0.08098883  0.60193618  0.78392545     1.11810
C203        C  0.92677898  0.46167088  0.78424421     1.11900
C204        C  0.95293944  0.58581533  0.78290424     1.11830
C205        C  0.07610110  0.44833023  0.76846734     1.11810
C206        C  0.13883724  0.33896650  0.89100896     0.05450
C207        C  0.14627464  0.34042502  0.93245741    -0.10690
C208        C  0.18603359  0.33460039  0.94606177     0.02960
C209        C  0.21690487  0.31724311  0.92000125    -0.09220
C210        C  0.20848067  0.30932321  0.87791675     0.05450
C211        C  0.16728338  0.31871955  0.86501097    -0.08640
H212        H  0.12385224  0.35627001  0.95207704     0.11040
H213        H  0.24747476  0.31213287  0.93216781     0.08570
H214        H  0.15723846  0.31290468  0.83429494     0.08420
C215        C  0.19519526  0.68578677  0.95819548     0.05450
C216        C  0.22213907  0.70901595  0.93188153    -0.10690
C217        C  0.21105356  0.71972808  0.89017371     0.02960
C218        C  0.17079255  0.70826226  0.87835305    -0.09220
C219        C  0.14615987  0.68325170  0.90462650     0.05450
C220        C  0.15597948  0.67736707  0.94547510    -0.08640
H221        H  0.25209675  0.71642278  0.94345942     0.11040
H222        H  0.15974910  0.71509424  0.84765111     0.08570
H223        H  0.13649837  0.65748999  0.96498760     0.08420
C224        C  0.31105245  0.82595522  0.88983919     0.05450
C225        C  0.32232896  0.86691517  0.87707154    -0.10690
C226        C  0.34642468  0.89135171  0.90257016     0.02960
C227        C  0.35704110  0.87699792  0.94149314    -0.09220
C228        C  0.34662883  0.83784240  0.95535119     0.05450
C229        C  0.32209239  0.81287192  0.93082010    -0.08640
H230        H  0.31481886  0.87900374  0.84662678     0.11040
H231        H  0.37742992  0.89517718  0.95984116     0.08570
H232        H  0.31422475  0.78246415  0.94282027     0.08420
C233        C  0.70914383  0.81054296  0.87225610     0.05450
C234        C  0.70238513  0.85311896  0.86179002    -0.10690
C235        C  0.68823819  0.88091472  0.89164690     0.02960
C236        C  0.68673669  0.86924645  0.93267842    -0.09220
C237        C  0.68872337  0.82800722  0.94342490     0.05450
C238        C  0.70368866  0.79919762  0.91488023    -0.08640
H239        H  0.70586290  0.86495182  0.83052985     0.11040
H240        H  0.67379395  0.89075919  0.95482556     0.08570
H241        H  0.70902220  0.76804758  0.92628706     0.08420
C242        C  0.20669237  0.70981690  0.37209888     0.05450
C243        C  0.20113100  0.71955291  0.41441046    -0.10690
C244        C  0.18407621  0.69073816  0.44291200     0.02960
C245        C  0.17835148  0.65058175  0.43223688    -0.09220
C246        C  0.18149357  0.64039394  0.39153269     0.05450
C247        C  0.19880121  0.66817695  0.36203788    -0.08640
H248        H  0.20716852  0.74998444  0.42523552     0.11040
H249        H  0.16303453  0.62945911  0.45412822     0.08570
H250        H  0.20388368  0.65729049  0.33128140     0.08420
C251        C  0.27313692  0.79625562  0.33810779     0.04610
C252        C  0.23242824  0.78278002  0.35211183     0.04610
C253        C  0.21958508  0.74264344  0.33926774     0.04610
C254        C  0.23369936  0.72954598  0.29949202     0.04610
C255        C  0.27481542  0.74149952  0.28750464     0.04610
C256        C  0.28770446  0.78193461  0.29845380     0.04610
C257        C  0.30656116  0.70859333  0.27333969     0.05450
C258        C  0.29444440  0.66741182  0.26574983    -0.10690
C259        C  0.32267175  0.63851959  0.24953445     0.02960
C260        C  0.36387182  0.64761791  0.24550583    -0.09220
C261        C  0.37686378  0.68728757  0.25053363     0.05450
C262        C  0.34928002  0.71751177  0.26619974    -0.08640
H263        H  0.26295703  0.65771975  0.27012089     0.11040
H264        H  0.38484727  0.62538038  0.23129544     0.08570
H265        H  0.36117453  0.74788968  0.27089223     0.08420
O266        O  0.32751048  0.45586554  0.02297046    -0.77810
O267        O  0.32000108  0.58150966  0.12063771    -0.77840
O268        O  0.27907266  0.54956817  0.98491111    -0.77840
O269        O  0.27315776  0.49592143  0.15049638    -0.77790
O270        O  0.32255253  0.56756588  0.03409682    -0.77910
O271        O  0.32288252  0.46113393  0.11565367    -0.77830
O272        O  0.27625761  0.53839129  0.15339560    -0.77810
O273        O  0.27651418  0.46883898  0.97876397    -0.77850
C274        C  0.31222396  0.45527331  0.98668421     1.11880
C275        C  0.30366949  0.56738113  0.15428740     1.11760
C276        C  0.30992700  0.56885209  0.99694922     1.11900
C277        C  0.30399998  0.46975387  0.14949940     1.11780
O278        O  0.24950700  0.42242117  0.11181961    -0.77810
O279        O  0.25298515  0.58796661  0.05725429    -0.77890
O280        O  0.20099049  0.46157960  0.01954982    -0.77820
O281        O  0.20522463  0.56053022  0.14463638    -0.77800
O282        O  0.24918224  0.59142443  0.09991501    -0.77860
O283        O  0.25243727  0.41621332  0.03148094    -0.77820
O284        O  0.20593417  0.47172576  0.13413116    -0.77780
O285        O  0.20383176  0.55378536  0.02446997    -0.77850
Co286      Co  0.28830154  0.44272142  0.06998383     1.51530
Co287      Co  0.29297077  0.54487990  0.08441051     1.51690
Co288      Co  0.23988624  0.50802528  0.00569305     1.51570
Co289      Co  0.23284941  0.52234204  0.10834459     1.51470
O290        O  0.26343182  0.49926757  0.06206209    -1.39750
C291        C  0.21951950  0.43433020  0.13371005     1.11810
C292        C  0.22194617  0.58738945  0.03227682     1.11900
C293        C  0.21629292  0.42467642  0.01981377     1.11830
C294        C  0.22124807  0.59362687  0.12920338     1.11810
O295        O  0.92459311  0.49384698  0.31749597    -0.77810
O296        O  0.09931363  0.54936281  0.32710154    -0.77840
O297        O  0.05101765  0.47056494  0.39138960    -0.77840
O298        O  0.96104580  0.55306147  0.37649528    -0.77790
O299        O  0.09826650  0.47170013  0.34029909    -0.77910
O300        O  0.92454035  0.54488100  0.31994616    -0.77830
O301        O  0.05329523  0.56635063  0.37614705    -0.77810
O302        O  0.95535757  0.47339647  0.37710458    -0.77850
C303        C  0.92391223  0.47397161  0.35294502     1.11880
C304        C  0.09010622  0.56585657  0.36092466     1.11760
C305        C  0.08843559  0.46544645  0.37769479     1.11900
C306        C  0.92697934  0.55797813  0.35723063     1.11780
O307        O  0.96326002  0.58738205  0.28872476    -0.77810
O308        O  0.06055547  0.45392017  0.26552000    -0.77890
O309        O  0.97224597  0.42298539  0.31581236    -0.77820
O310        O  0.04420398  0.58981633  0.29527105    -0.77800
O311        O  0.06271343  0.54528820  0.24893608    -0.77860
O312        O  0.96552783  0.46274736  0.25929127    -0.77820
O313        O  0.99093692  0.61969335  0.34252670    -0.77780
O314        O  0.05016267  0.41903235  0.32471547    -0.77850
Co315      Co  0.96897895  0.52170365  0.27969727     1.51530
Co316      Co  0.07518030  0.50498853  0.29522633     1.51690
Co317      Co  0.00762301  0.45226314  0.35220557     1.51570
Co318      Co  0.00663268  0.56450009  0.33670146     1.51470
O319        O  0.01616421  0.50757307  0.31926867    -1.39750
C320        C  0.96936247  0.62075709  0.31004277     1.11810
C321        C  0.06183381  0.42031176  0.28747515     1.11900
C322        C  0.96182810  0.42820220  0.27913647     1.11830
C323        C  0.06136549  0.58217341  0.26163841     1.11810
C324        C  0.21682619  0.31803269  0.28537828     0.05450
C325        C  0.17382014  0.32082406  0.29585482    -0.10690
C326        C  0.14437357  0.33232416  0.26577161     0.02960
C327        C  0.15604244  0.33749500  0.22503376    -0.09220
C328        C  0.19711964  0.34101664  0.21514183     0.05450
C329        C  0.22726483  0.32710718  0.24316310    -0.08640
H330        H  0.16274188  0.31564746  0.32708543     0.11040
H331        H  0.13337856  0.34885379  0.20279498     0.08570
H332        H  0.25843907  0.32521296  0.23142949     0.08420
C333        C  0.83337307  0.34276396  0.19704125     0.05450
C334        C  0.87441798  0.34611220  0.20647984    -0.10690
C335        C  0.88688765  0.33789348  0.24630272     0.02960
C336        C  0.85995751  0.31780190  0.27497223    -0.09220
C337        C  0.81798350  0.31009798  0.26475620     0.05450
C338        C  0.80655307  0.32058292  0.22361860    -0.08640
H339        H  0.89436343  0.36421953  0.18574088     0.11040
H340        H  0.87133500  0.31081402  0.30553456     0.08570
H341        H  0.77599063  0.31482638  0.21273095     0.08420
C342        C  0.88854881  0.70057944  0.26735700     0.05450
C343        C  0.87822249  0.68073976  0.23195127    -0.10690
C344        C  0.83801211  0.68181954  0.21850058     0.02960
C345        C  0.80818740  0.70706376  0.23804920    -0.09220
C346        C  0.81656568  0.72392305  0.27697495     0.05450
C347        C  0.85863810  0.72326094  0.28900363    -0.08640
H348        H  0.90051379  0.65978690  0.21782699     0.11040
H349        H  0.77797661  0.70985836  0.22470521     0.08570
H350        H  0.86795397  0.73687943  0.31729093     0.08420
O351        O  0.79350141  0.54932397  0.98934401    -0.77810
O352        O  0.77753533  0.47333329  0.16461123    -0.77840
O353        O  0.82707786  0.57134938  0.12252058    -0.77840
O354        O  0.78472714  0.41214187  0.05548380    -0.77790
O355        O  0.78220624  0.55801389  0.17216656    -0.77910
O356        O  0.80773417  0.46457463  0.01710073    -0.77830
O357        O  0.81624354  0.46421389  0.10940450    -0.77810
O358        O  0.82976483  0.56602666  0.04003332    -0.77850
C359        C  0.81948368  0.57289838  0.00355259     1.11880
C360        C  0.80581675  0.45367372  0.14568353     1.11760
C361        C  0.81363769  0.57702287  0.15848749     1.11900
C362        C  0.80426795  0.42488702  0.02431033     1.11780
O363        O  0.74527833  0.49212344  0.97255583    -0.77810
O364        O  0.70490286  0.56792977  0.13231103    -0.77890
O365        O  0.74950185  0.60536532  0.03385731    -0.77820
O366        O  0.73534745  0.43364508  0.11148164    -0.77800
O367        O  0.69743170  0.48548411  0.12822145    -0.77860
O368        O  0.71372673  0.54959946  0.02356115    -0.77820
O369        O  0.72251282  0.45774673  0.02792896    -0.77780
O370        O  0.75073744  0.61501273  0.11903640    -0.77850
Co371      Co  0.75981771  0.50990219  0.02434175     1.51530
Co372      Co  0.74151859  0.52122172  0.14541463     1.51690
Co373      Co  0.78816883  0.58565155  0.07886332     1.51570
Co374      Co  0.77043207  0.46522114  0.07091764     1.51470
O375        O  0.76470497  0.52594022  0.08490184    -1.39750
C376        C  0.72603371  0.46215475  0.98795019     1.11810
C377        C  0.71998831  0.60223238  0.13985656     1.11900
C378        C  0.72326978  0.58606915  0.01344514     1.11830
C379        C  0.70664849  0.44809874  0.13318698     1.11810
C380        C  0.65265979  0.85622073  0.41054276     0.05450
C381        C  0.66909716  0.85541297  0.44953564    -0.10690
C382        C  0.70648272  0.83579009  0.45691251     0.02960
C383        C  0.72739138  0.81533058  0.42537410    -0.09220
C384        C  0.71325934  0.81767895  0.38404127     0.05450
C385        C  0.67328817  0.83568563  0.37803570    -0.08640
H386        H  0.65445592  0.87351275  0.47357961     0.11040
H387        H  0.75650019  0.80063833  0.43308828     0.08570
H388        H  0.65865117  0.83563437  0.34845938     0.08420
C389        C  0.84777399  0.69762991  0.44354517     0.05450
C390        C  0.82472825  0.72574548  0.41874668    -0.10690
C391        C  0.81521380  0.71666926  0.37722137     0.02960
C392        C  0.82535497  0.67557263  0.36455185    -0.09220
C393        C  0.84724438  0.64741962  0.39074645     0.05450
C394        C  0.85746012  0.65874540  0.42982559    -0.08640
H395        H  0.81651563  0.75520067  0.43143658     0.11040
H396        H  0.81769914  0.66549104  0.33423031     0.08570
H397        H  0.87643968  0.63796843  0.44880125     0.08420
C398        C  0.78292037  0.73876107  0.30727973     0.04610
C399        C  0.79532707  0.74944951  0.34754526     0.04610
C400        C  0.78291392  0.78975729  0.36000746     0.04610
C401        C  0.74194726  0.80279645  0.34911135     0.04610
C402        C  0.72683848  0.79076381  0.30960402     0.04610
C403        C  0.74207038  0.75168870  0.29471062     0.04610
C404        C  0.71146961  0.71881126  0.28137946     0.05450
C405        C  0.72498359  0.67815527  0.27167235    -0.10690
C406        C  0.69888411  0.65116748  0.25193697     0.02960
C407        C  0.65695521  0.65785821  0.25362664    -0.09220
C408        C  0.64176126  0.69667680  0.26239314     0.05450
C409        C  0.66818964  0.72692719  0.27757932    -0.08640
H410        H  0.75605832  0.66741991  0.27700681     0.11040
H411        H  0.63715747  0.63638344  0.23834983     0.08570
H412        H  0.65497422  0.75677572  0.28451051     0.08420
O413        O  0.60518794  0.76639566  0.04283776    -0.77810
O414        O  0.42866050  0.75529326  0.09948327    -0.77840
O415        O  0.46787770  0.81677346  0.03769286    -0.77840
O416        O  0.55336185  0.82914013  0.12033097    -0.77790
O417        O  0.43196876  0.75920530  0.04608145    -0.77910
O418        O  0.60136411  0.77894334  0.12086978    -0.77830
O419        O  0.45838828  0.81502734  0.11705020    -0.77810
O420        O  0.55991188  0.81510834  0.02209041    -0.77850
C421        C  0.59656899  0.79962657  0.02332000     1.11880
C422        C  0.42676149  0.79108717  0.11631644     1.11760
C423        C  0.43398619  0.79758991  0.03366545     1.11900
C424        C  0.59038502  0.81579518  0.12735553     1.11780
O425        O  0.56338847  0.70277815  0.14075593    -0.77810
O426        O  0.46814178  0.72886516  0.00835537    -0.77890
O427        O  0.55020547  0.73471202  0.00369667    -0.77820
O428        O  0.47257373  0.75255884  0.16935347    -0.77800
O429        O  0.47142064  0.69569008  0.13326562    -0.77860
O430        O  0.56904082  0.68822257  0.05015419    -0.77820
O431        O  0.55095097  0.76065329  0.17402727    -0.77780
O432        O  0.49764216  0.78167548  0.97185193    -0.77850
Co433      Co  0.57976851  0.73404546  0.08876318     1.51530
Co434      Co  0.47385569  0.71818340  0.07385745     1.51690
Co435      Co  0.51267869  0.77613049  0.02733468     1.51570
Co436      Co  0.50967977  0.78929646  0.13942830     1.51470
O437        O  0.52069640  0.75789105  0.08517555    -1.39750
C438        C  0.56287509  0.72346478  0.17385463     1.11810
C439        C  0.47499061  0.74981953  0.97349186     1.11900
C440        C  0.56758489  0.70118289  0.01261354     1.11830
C441        C  0.46365287  0.71555750  0.16604010     1.11810
C442        C  0.33712452  0.82165557  0.19416737     0.05450
C443        C  0.31552954  0.79725661  0.22393429    -0.10690
C444        C  0.30921564  0.81060182  0.26537160     0.02960
C445        C  0.32481204  0.85074433  0.27378552    -0.09220
C446        C  0.34698364  0.87399504  0.24292311     0.05450
C447        C  0.34959718  0.86055930  0.20327150    -0.08640
H448        H  0.30558303  0.76730864  0.21480001     0.11040
H449        H  0.32144525  0.86341773  0.30408335     0.08570
H450        H  0.36741813  0.87830867  0.18029854     0.08420
C451        C  0.68080546  0.89483485  0.26731115     0.05450
C452        C  0.70306460  0.86561536  0.29144411    -0.10690
C453        C  0.70667313  0.82348883  0.27996894     0.02960
C454        C  0.69127053  0.81441388  0.23992991    -0.09220
C455        C  0.66978962  0.84503308  0.21579344     0.05450
C456        C  0.66608187  0.88466634  0.22943937    -0.08640
H457        H  0.71533997  0.87564168  0.32017244     0.11040
H458        H  0.69489478  0.78400353  0.22759378     0.08570
H459        H  0.64781425  0.90729803  0.21184381     0.08420
C460        C  0.71241505  0.30969224  0.26928138     0.05450
C461        C  0.71992653  0.35061091  0.25387285    -0.10690
C462        C  0.68856724  0.37350786  0.23323520     0.02960
C463        C  0.64870131  0.35900001  0.23289706    -0.09220
C464        C  0.63968744  0.32075422  0.25015968     0.05450
C465        C  0.67053554  0.29700729  0.26942932    -0.08640
H466        H  0.75005265  0.36409281  0.25544856     0.11040
H467        H  0.62535009  0.37567667  0.21502612     0.08570
H468        H  0.66152044  0.26733489  0.28150257     0.08420
C469        C  0.78485829  0.24107079  0.35323895     0.04610
C470        C  0.79903688  0.28096066  0.33754825     0.04610
C471        C  0.78617538  0.29333630  0.29669015     0.04610
C472        C  0.74663546  0.27926767  0.28374662     0.04610
C473        C  0.73488109  0.23868105  0.29752281     0.04610
C474        C  0.74562164  0.22769792  0.33918393     0.04610
C475        C  0.71190154  0.21581535  0.37101429     0.05450
C476        C  0.67014992  0.21302552  0.35926177    -0.10690
C477        C  0.63980089  0.19840885  0.38683306     0.02960
C478        C  0.64895529  0.18929901  0.42742877    -0.09220
C479        C  0.68915201  0.19090602  0.44034272     0.05450
C480        C  0.72032222  0.20647437  0.41342454    -0.08640
H481        H  0.66081036  0.21901522  0.32812642     0.11040
H482        H  0.62570676  0.17490710  0.44751562     0.08570
H483        H  0.75100921  0.20881865  0.42544040     0.08420
O484        O  0.45651797  0.94583980  0.38247371    -0.77810
O485        O  0.56818883  0.07966653  0.37723284    -0.77840
O486        O  0.55155235  0.92919709  0.34818311    -0.77840
O487        O  0.47996369  0.08152151  0.35838896    -0.77790
O488        O  0.56435192  0.98030095  0.39195355    -0.77910
O489        O  0.45178012  0.03383562  0.39763952    -0.77830
O490        O  0.53781223  0.11551442  0.32425886    -0.77810
O491        O  0.47536106  0.91065294  0.32812431    -0.77850
C492        C  0.45845379  0.91226489  0.36296232     1.11880
C493        C  0.56096323  0.11424369  0.35624710     1.11760
C494        C  0.56695115  0.94236969  0.38093125     1.11900
C495        C  0.45754029  0.07159799  0.38818791     1.11780
O496        O  0.41966496  0.04548955  0.31860406    -0.77810
O497        O  0.59152109  0.99872699  0.32823314    -0.77890
O498        O  0.47369123  0.95636018  0.25726787    -0.77820
O499        O  0.55457881  0.05833078  0.26677679    -0.77800
O500        O  0.59087347  0.04581798  0.32131757    -0.77860
O501        O  0.42283080  0.96548852  0.30448729    -0.77820
O502        O  0.46701804  0.07929982  0.27948972    -0.77780
O503        O  0.56409371  0.97098501  0.27278565    -0.77850
Co504      Co  0.44204766  0.99769390  0.35006571     1.51530
Co505      Co  0.54136208  0.02812032  0.35731280     1.51690
Co506      Co  0.51613451  0.94624251  0.30124729     1.51570
Co507      Co  0.51473739  0.06181198  0.31416075     1.51470
O508        O  0.49936915  0.00165721  0.32394280    -1.39750
C509        C  0.42976582  0.07262719  0.29164918     1.11810
C510        C  0.59493267  0.97596720  0.29598003     1.11900
C511        C  0.43550583  0.95403747  0.26950692     1.11830
C512        C  0.58889810  0.06153539  0.28474475     1.11810
O513        O  0.47105060  0.26124593  0.98168487    -0.77810
O514        O  0.53219105  0.24686659  0.18206749    -0.77840
O515        O  0.45834485  0.33705719  0.10373514    -0.77840
O516        O  0.55404129  0.32530423  0.01642781    -0.77790
O517        O  0.47784287  0.29162094  0.15075548    -0.77910
O518        O  0.54937636  0.26700997  0.98297391    -0.77830
O519        O  0.55926816  0.29913569  0.14281592    -0.77810
O520        O  0.46072781  0.32039653  0.01351727    -0.77850
C521        C  0.46038673  0.29880479  0.98099624     1.11880
C522        C  0.55404101  0.27919941  0.17856197     1.11760
C523        C  0.46023454  0.32485291  0.14143353     1.11900
C524        C  0.55916320  0.30395485  0.98419080     1.11780
O525        O  0.56365515  0.20631752  0.03772157    -0.77810
O526        O  0.46855943  0.21102733  0.13523163    -0.77890
O527        O  0.42186736  0.24573312  0.03655294    -0.77820
O528        O  0.59680183  0.26736962  0.10259680    -0.77800
O529        O  0.56134121  0.21049551  0.11760282    -0.77860
O530        O  0.46833446  0.19431746  0.03730171    -0.77820
O531        O  0.59522137  0.26648908  0.05088383    -0.77780
O532        O  0.42221194  0.25881187  0.11408005    -0.77850
Co533      Co  0.51256748  0.23245410  0.01575373     1.51530
Co534      Co  0.51533817  0.25029771  0.12719948     1.51690
Co535      Co  0.44577216  0.29052285  0.06678678     1.51570
Co536      Co  0.55198498  0.30622382  0.07693046     1.51470
O537        O  0.50468014  0.26613789  0.06902959    -1.39750
C538        C  0.59572426  0.22968949  0.03585378     1.11810
C539        C  0.43169440  0.22622084  0.13435130     1.11900
C540        C  0.43154138  0.20851710  0.03062065     1.11830
C541        C  0.59526266  0.23035005  0.11894652     1.11810
C542        C  0.33809499  0.20198261  0.21397563     0.05450
C543        C  0.33764377  0.16077292  0.22500645    -0.10690
C544        C  0.33495813  0.14975672  0.26612329     0.02960
C545        C  0.32009456  0.17809120  0.29492461    -0.09220
C546        C  0.31639920  0.22096798  0.28440065     0.05450
C547        C  0.32372449  0.23174635  0.24190107    -0.08640
H548        H  0.35052658  0.13853643  0.20354577     0.11040
H549        H  0.31378297  0.16612576  0.32565098     0.08570
H550        H  0.31972986  0.26281327  0.22992274     0.08420
C551        C  0.34302979  0.13353305  0.88901918     0.05450
C552        C  0.35557078  0.14289377  0.92786066    -0.10690
C553        C  0.35131603  0.18226310  0.94202035     0.02960
C554        C  0.33016845  0.21318072  0.91780438    -0.09220
C555        C  0.31605605  0.20468277  0.87707151     0.05450
C556        C  0.32201734  0.16317405  0.86421303    -0.08640
H557        H  0.37306895  0.11993096  0.94584986     0.11040
H558        H  0.32616515  0.24353751  0.93028829     0.08570
H559        H  0.31207433  0.15381241  0.83434261     0.08420
C560        C  0.68205701  0.19646787  0.95438142     0.05450
C561        C  0.70426636  0.22049675  0.92478514    -0.10690
C562        C  0.71175236  0.20649841  0.88370549     0.02960
C563        C  0.69807861  0.16558799  0.87587964    -0.09220
C564        C  0.67608376  0.14217764  0.90674228     0.05450
C565        C  0.67029129  0.15724220  0.94558175    -0.08640
H566        H  0.71403696  0.25053046  0.93386274     0.11040
H567        H  0.70285472  0.15248548  0.84588457     0.08570
H568        H  0.65201487  0.13968153  0.96830598     0.08420
O569        O  0.55908805  0.95795454  0.87945595    -0.77810
O570        O  0.46049538  0.05259119  0.88006011    -0.77840
O571        O  0.60220552  0.05363920  0.84076368    -0.77840
O572        O  0.43159713  0.98139124  0.82465602    -0.77790
O573        O  0.55541276  0.05381391  0.89220722    -0.77910
O574        O  0.46735759  0.97389736  0.88223861    -0.77830
O575        O  0.42917407  0.03605891  0.82090125    -0.77810
O576        O  0.60381735  0.97611122  0.82906231    -0.77850
C577        C  0.59553858  0.95857898  0.86344149     1.11880
C578        C  0.42840697  0.05249498  0.85685196     1.11760
C579        C  0.59246756  0.05919949  0.87806429     1.11900
C580        C  0.43343947  0.96980946  0.86320256     1.11780
O581        O  0.49590586  0.90735133  0.84765689    -0.77810
O582        O  0.55297458  0.10766471  0.82374033    -0.77890
O583        O  0.56563601  0.98363248  0.75166846    -0.77820
O584        O  0.47311848  0.06814443  0.76002471    -0.77800
O585        O  0.47433196  0.10440869  0.81681585    -0.77860
O586        O  0.54790011  0.93817157  0.79962177    -0.77820
O587        O  0.46652895  0.94372263  0.79463918    -0.77780
O588        O  0.56285372  0.07404353  0.76566119    -0.77850
Co589      Co  0.51147698  0.96261534  0.84120204     1.51530
Co590      Co  0.51145087  0.07412867  0.85327546     1.51690
Co591      Co  0.57876440  0.02206723  0.79672295     1.51570
Co592      Co  0.47303941  0.00919230  0.78327922     1.51470
O593        O  0.52041796  0.01982256  0.82204766    -1.39750
C594        C  0.47334731  0.90890247  0.81576374     1.11810
C595        C  0.56402742  0.10706037  0.78631467     1.11900
C596        C  0.56389618  0.94636213  0.76530193     1.11830
C597        C  0.46599647  0.10115800  0.77965395     1.11810
C598        C  0.69948816  0.37654320  0.90503957     0.05450
C599        C  0.65823426  0.36813245  0.90827550    -0.10690
C600        C  0.64427426  0.32969429  0.89919993     0.02960
C601        C  0.67147439  0.29988621  0.88214752    -0.09220
C602        C  0.71439659  0.30836825  0.87608361     0.05450
C603        C  0.72689877  0.34903749  0.88546020    -0.08640
H604        H  0.63771097  0.38965565  0.92412935     0.11040
H605        H  0.65926248  0.27000251  0.87563994     0.08570
H606        H  0.75812382  0.35910545  0.88005927     0.08420
C607        C  0.84047481  0.37779822  0.76084450     0.05450
C608        C  0.82333355  0.34899817  0.78933297    -0.10690
C609        C  0.81488251  0.30786564  0.77755216     0.02960
C610        C  0.82203362  0.29931587  0.73518518    -0.09220
C611        C  0.83908295  0.32939550  0.70795375     0.05450
C612        C  0.84259277  0.36949228  0.71966895    -0.08640
H613        H  0.81890045  0.35873611  0.82058431     0.11040
H614        H  0.81710928  0.26905500  0.72340650     0.08570
H615        H  0.85715607  0.39179386  0.69842377     0.08420
C616        C  0.80046017  0.27443286  0.80913822     0.04610
C617        C  0.78664210  0.28677696  0.84907604     0.04610
C618        C  0.74581489  0.27533037  0.86142793     0.04610
C619        C  0.73307602  0.23494390  0.85041858     0.04610
C620        C  0.74812462  0.22039124  0.81080996     0.04610
C621        C  0.78855913  0.23414773  0.79641180     0.04610
C622        C  0.71601037  0.20946092  0.77845382     0.05450
C623        C  0.67326670  0.20534269  0.78899005    -0.10690
C624        C  0.64435984  0.19470210  0.75930805     0.02960
C625        C  0.65574642  0.19250751  0.71847886    -0.09220
C626        C  0.69678022  0.19318045  0.70731316     0.05450
C627        C  0.72676117  0.20401790  0.73597977    -0.08640
H628        H  0.66181639  0.20916431  0.82002565     0.11040
H629        H  0.63335573  0.18223609  0.69644678     0.08570
H630        H  0.75801181  0.20708128  0.72461300     0.08420
O631        O  0.76529537  0.97647132  0.66468936    -0.77810
O632        O  0.75835978  0.03778001  0.49091871    -0.77840
O633        O  0.81633433  0.97508369  0.52625019    -0.77840
O634        O  0.82715444  0.05591925  0.61843194    -0.77790
O635        O  0.75964753  0.98690040  0.48962306    -0.77910
O636        O  0.77471662  0.05408239  0.66397532    -0.77830
O637        O  0.81687750  0.05533437  0.52320562    -0.77810
O638        O  0.81583244  0.96001339  0.61975240    -0.77850
C639        C  0.79997739  0.96003777  0.65633837     1.11880
C640        C  0.79414471  0.05556650  0.49081559     1.11760
C641        C  0.79697354  0.97197755  0.49224634     1.11900
C642        C  0.81217834  0.06030435  0.65523434     1.11780
O643        O  0.70031846  0.07323306  0.62381220    -0.77810
O644        O  0.72952483  0.94360185  0.52971313    -0.77890
O645        O  0.73629552  0.93791427  0.61014257    -0.77820
O646        O  0.75301500  0.10646403  0.53575195    -0.77800
O647        O  0.69740561  0.06837275  0.52869760    -0.77860
O648        O  0.68743405  0.98204873  0.62625706    -0.77820
O649        O  0.75829182  0.10822792  0.61423747    -0.77780
O650        O  0.78409127  0.90882147  0.55760025    -0.77850
Co651      Co  0.73183743  0.02163133  0.63967582     1.51530
Co652      Co  0.71908676  0.00922234  0.53397185     1.51690
Co653      Co  0.77690290  0.96373662  0.57251426     1.51570
Co654      Co  0.78884946  0.07586082  0.57342373     1.51470
O655        O  0.75756687  0.02075773  0.58144449    -1.39750
C656        C  0.72092402  0.10659189  0.62554675     1.11810
C657        C  0.75146360  0.90944155  0.53615283     1.11900
C658        C  0.70160330  0.94513767  0.62548187     1.11830
C659        C  0.71682255  0.10223411  0.52414106     1.11810
C660        C  0.82590180  0.13661784  0.40079872     0.05450
C661        C  0.80054330  0.16627147  0.38045421    -0.10690
C662        C  0.81419272  0.20773809  0.37219115     0.02960
C663        C  0.85584839  0.21583186  0.38249709    -0.09220
C664        C  0.88064033  0.18487090  0.40205253     0.05450
C665        C  0.86619193  0.14551955  0.40874160    -0.08640
H666        H  0.76976109  0.15696039  0.37309488     0.11040
H667        H  0.86883613  0.24600493  0.37687714     0.08570
H668        H  0.88498384  0.12287165  0.42577312     0.08420
C669        C  0.89061606  0.19270130  0.74377030     0.05450
C670        C  0.86227427  0.21818455  0.76550152    -0.10690
C671        C  0.82092553  0.20493729  0.77520704     0.02960
C672        C  0.81155121  0.16375839  0.76334651    -0.09220
C673        C  0.84141901  0.13901819  0.74223145     0.05450
C674        C  0.88097291  0.15263546  0.73628648    -0.08640
H675        H  0.87237773  0.24856529  0.77306927     0.11040
H676        H  0.78109271  0.15139386  0.76881072     0.08570
H677        H  0.90303537  0.13367585  0.71915969     0.08420
C678        C  0.38115035  0.18614707  0.75102364     0.05450
C679        C  0.36676876  0.18022869  0.71199524    -0.10690
C680        C  0.32565578  0.18639513  0.70359628     0.02960
C681        C  0.29912396  0.20456594  0.73287119    -0.09220
C682        C  0.31239425  0.21128272  0.77393439     0.05450
C683        C  0.35494035  0.20283042  0.78182350    -0.08640
H684        H  0.38654016  0.16469720  0.68960714     0.11040
H685        H  0.26782124  0.21100971  0.72364807     0.08570
H686        H  0.36762407  0.20732157  0.81189557     0.08420
C687        C  0.29548471  0.23754950  0.84772121     0.04610
C688        C  0.28154939  0.27748213  0.86173454     0.04610
C689        C  0.24170245  0.29274622  0.84752803     0.04610
C690        C  0.22920142  0.28035870  0.80748004     0.04610
C691        C  0.24150374  0.23966651  0.79599803     0.04610
C692        C  0.28190850  0.22615937  0.80762206     0.04610
O693        O  0.27337731  0.91335709  0.53623327    -0.77810
O694        O  0.27507002  0.09155130  0.60196644    -0.77840
O695        O  0.32289497  0.04944451  0.52627704    -0.77840
O696        O  0.32021805  0.97248263  0.63380343    -0.77790
O697        O  0.27341359  0.08622566  0.55965764    -0.77910
O698        O  0.27714586  0.92248316  0.61655794    -0.77830
O699        O  0.31768498  0.05918187  0.64624074    -0.77810
O700        O  0.32516455  0.95611370  0.52157467    -0.77850
C701        C  0.30858859  0.92032725  0.52092312     1.11880
C702        C  0.30192372  0.09279789  0.63151717     1.11760
C703        C  0.30475191  0.08392498  0.53419968     1.11900
C704        C  0.30801536  0.93512846  0.63542186     1.11780
O705        O  0.20213633  0.96279396  0.62003323    -0.77810
O706        O  0.20559029  0.07022918  0.53459216    -0.77890
O707        O  0.25041111  0.96627528  0.48226027    -0.77820
O708        O  0.24606403  0.03954914  0.65566240    -0.77800
O709        O  0.20351087  0.08366245  0.62240001    -0.77860
O710        O  0.19896154  0.95491372  0.52796982    -0.77820
O711        O  0.25082057  0.99656147  0.65373113    -0.77780
O712        O  0.25011935  0.04666000  0.48684019    -0.77850
Co713      Co  0.23774020  0.94219073  0.57486334     1.51530
Co714      Co  0.23163160  0.04577891  0.58616329     1.51690
Co715      Co  0.28737376  0.00426044  0.50815606     1.51570
Co716      Co  0.29076294  0.02239652  0.61011577     1.51470
O717        O  0.26192976  0.99830107  0.56473138    -1.39750
C718        C  0.22039903  0.97088651  0.65341178     1.11810
C719        C  0.21998701  0.06885404  0.49756701     1.11900
C720        C  0.21433926  0.95448137  0.49103715     1.11830
C721        C  0.21845359  0.06928348  0.65633415     1.11810
O722        O  0.95930721  0.32379239  0.52096537    -0.77810
O723        O  0.05747910  0.31610951  0.64710828    -0.77840
O724        O  0.92247027  0.27144441  0.61079128    -0.77840
O725        O  0.08848038  0.27256348  0.56079340    -0.77790
O726        O  0.96967013  0.31542253  0.63253289    -0.77910
O727        O  0.05168579  0.32221684  0.52695039    -0.77830
O728        O  0.09147504  0.27480672  0.60346990    -0.77810
O729        O  0.91684159  0.27072124  0.53090106    -0.77850
C730        C  0.92353095  0.30748855  0.51913841     1.11880
C731        C  0.09163096  0.30137690  0.63293093     1.11760
C732        C  0.93278805  0.30175915  0.63123382     1.11900
C733        C  0.08615934  0.30403142  0.53505152     1.11780
O734        O  0.05022301  0.25001919  0.48676578    -0.77810
O735        O  0.99653546  0.24745067  0.65228315    -0.77890
O736        O  0.96114745  0.19683210  0.52439832    -0.77820
O737        O  0.08521404  0.20244034  0.62353791    -0.77800
O738        O  0.03937028  0.24364188  0.65534084    -0.77860
O739        O  0.97030990  0.24996873  0.47979223    -0.77820
O740        O  0.07296232  0.20494098  0.53535506    -0.77780
O741        O  0.96485953  0.19859198  0.61693580    -0.77850
Co742      Co  0.00741010  0.28671116  0.50732681     1.51530
Co743      Co  0.02182711  0.28901340  0.60985014     1.51690
Co744      Co  0.94506475  0.23412304  0.57043023     1.51570
Co745      Co  0.04766054  0.23033669  0.58625337     1.51470
O746        O  0.00043168  0.26009887  0.56335881    -1.39750
C747        C  0.07201817  0.21957606  0.49818474     1.11810
C748        C  0.97127193  0.21679002  0.65072970     1.11900
C749        C  0.96007360  0.21313810  0.48778645     1.11830
C750        C  0.06979710  0.21680666  0.65692100     1.11810
C751        C  0.14692786  0.19758169  0.40115222     0.05450
C752        C  0.15730363  0.15647865  0.39878873    -0.10690
C753        C  0.19849554  0.14605275  0.40087219     0.02960
C754        C  0.22858363  0.17484961  0.38810800    -0.09220
C755        C  0.21791364  0.21742674  0.38170379     0.05450
C756        C  0.17536458  0.22779608  0.38804463    -0.08640
H757        H  0.13477454  0.13381069  0.40962293     0.11040
H758        H  0.25990481  0.16357079  0.38562744     0.08570
H759        H  0.16391545  0.25909751  0.38545745     0.08420
C760        C  0.21234564  0.31164413  0.77463646     0.05450
C761        C  0.20081102  0.35331412  0.78376455    -0.10690
C762        C  0.17949813  0.37865929  0.75460171     0.02960
C763        C  0.17621147  0.36629240  0.71460363    -0.09220
C764        C  0.18562470  0.32617867  0.70476617     0.05450
C765        C  0.20562572  0.29951090  0.73335423    -0.08640
H766        H  0.20555737  0.36544342  0.81390645     0.11040
H767        H  0.15871868  0.38561538  0.69283363     0.08570
H768        H  0.21332499  0.26873442  0.72365352     0.08420
C769        C  0.21007127  0.20865401  0.78064532     0.05450
C770        C  0.16841427  0.22052646  0.77215505    -0.10690
C771        C  0.14168512  0.19315540  0.75330437     0.02960
C772        C  0.15381239  0.15284528  0.74707235    -0.09220
C773        C  0.19426486  0.14069988  0.75276286     0.05450
C774        C  0.22170336  0.16697415  0.77214456    -0.08640
H775        H  0.15715010  0.25146893  0.77751018     0.11040
H776        H  0.13355951  0.13288725  0.73043828     0.08570
H777        H  0.25264971  0.15548041  0.77760972     0.08420
C778        C  0.71340771  0.20876644  0.26812241     0.05450
C779        C  0.70034932  0.16813727  0.28103436    -0.10690
C780        C  0.67720983  0.14352923  0.25438423     0.02960
C781        C  0.66959220  0.15724749  0.21464079    -0.09220
C782        C  0.68083594  0.19608133  0.20096847     0.05450
C783        C  0.70410726  0.22132347  0.22644678    -0.08640
H784        H  0.70627073  0.15632593  0.31193337     0.11040
H785        H  0.65054072  0.13881911  0.19511168     0.08570
H786        H  0.71298243  0.25130144  0.21412554     0.08420
C787        C  0.20425028  0.71209736  0.26696652     0.05450
C788        C  0.21826346  0.70870803  0.22519198    -0.10690
C789        C  0.19356937  0.69115300  0.19533593     0.02960
C790        C  0.15299699  0.68217104  0.20408608    -0.09220
C791        C  0.14001197  0.67826089  0.24450746     0.05450
C792        C  0.16352879  0.69639592  0.27594353    -0.08640
H793        H  0.24928190  0.71692213  0.21589562     0.11040
H794        H  0.13485752  0.66802285  0.18044896     0.08570
H795        H  0.15043511  0.69669267  0.30673671     0.08420
C796        C  0.31971403  0.32605190  0.28014212     0.05450
C797        C  0.30575122  0.36779129  0.27158788    -0.10690
C798        C  0.33015571  0.39596131  0.24775242     0.02960
C799        C  0.37023923  0.38597026  0.23759332    -0.09220
C800        C  0.38324134  0.34557070  0.23954113     0.05450
C801        C  0.36027531  0.31601554  0.26375774    -0.08640
H802        H  0.27519632  0.37795817  0.28103508     0.11040
H803        H  0.38839456  0.40816266  0.21929237     0.08570
H804        H  0.37345797  0.28541315  0.26801042     0.08420
C805        C  0.38307808  0.17197656  0.40731678     0.05450
C806        C  0.35997192  0.19626086  0.37809221    -0.10690
C807        C  0.32004907  0.21350102  0.38897089     0.02960
C808        C  0.30634206  0.20457300  0.43074281    -0.09220
C809        C  0.33124904  0.18108171  0.45869035     0.05450
C810        C  0.37119479  0.17102631  0.44805076    -0.08640
H811        H  0.37256512  0.19990212  0.34720159     0.11040
H812        H  0.27577553  0.21370325  0.44117863     0.08570
H813        H  0.38976128  0.15297621  0.47003437     0.08420
C814        C  0.17855792  0.38551607  0.40908730     0.05450
C815        C  0.17438655  0.37120490  0.44912818    -0.10570
C816        C  0.18220565  0.33044002  0.45901282     0.02960
C817        C  0.20449080  0.30535046  0.43104388    -0.09220
C818        C  0.21393286  0.31981855  0.38965342     0.05450
C819        C  0.19989003  0.36114846  0.37933967    -0.08640
H820        H  0.15718830  0.38992228  0.47114436     0.11040
H821        H  0.21225313  0.27417350  0.44118113     0.08570
H822        H  0.20394823  0.37394186  0.34840281     0.08420
C823        C  0.24986384  0.30606149  0.31759379     0.04610
C824        C  0.29101788  0.29401785  0.30363502     0.04610
C825        C  0.30522063  0.25305416  0.31718977     0.04610
C826        C  0.29142986  0.23791001  0.35772873     0.04610
C827        C  0.25026216  0.25041177  0.37013149     0.04610
C828        C  0.23650469  0.29137183  0.35803833     0.04610
C829        C  0.13041918  0.30857495  0.65175382    -0.10950
C830        C  0.16091400  0.31162164  0.67215505    -0.12510
C831        C  0.12419552  0.31356811  0.51332420    -0.10950
C832        C  0.15515523  0.31544852  0.49178451    -0.12510
C833        C  0.10872858  0.20679534  0.72704164    -0.10950
C834        C  0.08850298  0.20938845  0.69618844    -0.12510
C835        C  0.11845715  0.20516596  0.43437897    -0.10950
C836        C  0.09877948  0.20593200  0.46616093    -0.12510
C837        C  0.20643555  0.11644204  0.43349093    -0.10950
C838        C  0.20686112  0.09597014  0.46507050    -0.12510
C839        C  0.21060035  0.08838811  0.69514484    -0.10950
C840        C  0.20770333  0.10845898  0.72588472    -0.12510
C841        C  0.31608184  0.15393020  0.49155380    -0.10950
C842        C  0.31432239  0.12237729  0.51271004    -0.12510
C843        C  0.31122313  0.16160618  0.67105017    -0.10950
C844        C  0.30827823  0.13169741  0.65012437    -0.12510
C845        C  0.92473847  0.20691771  0.71810404    -0.10950
C846        C  0.94794692  0.20827093  0.68829613    -0.12510
C847        C  0.93894286  0.19543809  0.45482069    -0.10950
C848        C  0.91585070  0.19317915  0.42632168    -0.12510
C849        C  0.83150422  0.08191661  0.68736585    -0.10950
C850        C  0.83277719  0.10483327  0.71623705    -0.12510
C851        C  0.80568334  0.07737404  0.45317161    -0.10950
C852        C  0.81060378  0.10151054  0.42437851    -0.12510
C853        C  0.70609165  0.16931255  0.67179419    -0.10950
C854        C  0.70727378  0.14143559  0.64804390    -0.12510
C855        C  0.86885614  0.31906873  0.67693586    -0.10950
C856        C  0.89997706  0.31647700  0.65644320    -0.12510
C857        C  0.58493834  0.14307533  0.77203974    -0.10950
C858        C  0.60829558  0.17152607  0.76957397    -0.12510
C859        C  0.44336627  0.13559190  0.76299058    -0.10950
C860        C  0.41835120  0.16334229  0.75984262    -0.12510
C861        C  0.65096204  0.10673661  0.89964015    -0.10950
C862        C  0.62328880  0.08212465  0.89802419    -0.12510
C863        C  0.36258028  0.09705019  0.87351040    -0.10950
C864        C  0.39047451  0.07261185  0.86832813    -0.12510
C865        C  0.63326907  0.21782898  0.01475985    -0.10950
C866        C  0.66121276  0.21255757  0.99017165    -0.12510
C867        C  0.37597876  0.18907962  0.97808925    -0.10950
C868        C  0.40217742  0.18987121  0.00447951    -0.12510
C869        C  0.41313017  0.33699803  0.20671149    -0.10950
C870        C  0.43386797  0.33847104  0.17488815    -0.12510
C871        C  0.36854808  0.21115542  0.18262105    -0.10950
C872        C  0.39912622  0.21231719  0.16095750    -0.12510
C873        C  0.63146340  0.21567724  0.14030205    -0.10950
C874        C  0.65913820  0.21041373  0.16463264    -0.12510
C875        C  0.60633741  0.32002215  0.92036343    -0.10950
C876        C  0.58139805  0.31812918  0.94834092    -0.12510
C877        C  0.62450188  0.08391378  0.26975489    -0.10950
C878        C  0.65275919  0.10808998  0.26678952    -0.12510
C879        C  0.39628239  0.09875518  0.27976263    -0.10950
C880        C  0.36504805  0.11907987  0.27740907    -0.12510
C881        C  0.43108485  0.10558248  0.40020749    -0.10950
C882        C  0.41132917  0.13795367  0.39838225    -0.12510
C883        C  0.70119560  0.13668281  0.50051058    -0.10950
C884        C  0.69785704  0.16520169  0.47602307    -0.12510
C885        C  0.60441497  0.17852103  0.37218392    -0.10950
C886        C  0.58158571  0.15094131  0.36563568    -0.12510
C887        C  0.57671975  0.29147911  0.21336506    -0.10950
C888        C  0.60257513  0.30246764  0.23656981    -0.12510
C889        C  0.66203275  0.93151411  0.28333679    -0.10950
C890        C  0.63393116  0.95579264  0.28833976    -0.12510
C891        C  0.40507409  0.92945549  0.25083014    -0.10950
C892        C  0.37584397  0.90650190  0.25020226    -0.12510
C893        C  0.64471343  0.83745255  0.18025406    -0.10950
C894        C  0.61877372  0.83534087  0.15381113    -0.12510
C895        C  0.38788079  0.80146545  0.13559621    -0.10950
C896        C  0.35860092  0.80570799  0.15877292    -0.12510
C897        C  0.58249227  0.70952036  0.21088557    -0.10950
C898        C  0.60503977  0.70688920  0.24005602    -0.12510
C899        C  0.72758754  0.84853078  0.49250008    -0.10950
C900        C  0.74001594  0.87278005  0.51637811    -0.12510
C901        C  0.59423504  0.91300821  0.40016504    -0.10950
C902        C  0.61911224  0.88516071  0.40415944    -0.12510
C903        C  0.71401170  0.61853884  0.18031488    -0.10950
C904        C  0.71213200  0.63043834  0.21528150    -0.12510
C905        C  0.69692568  0.40571204  0.20298644    -0.10950
C906        C  0.69799511  0.42672116  0.17164020    -0.12510
C907        C  0.71504669  0.43131229  0.95997004    -0.10950
C908        C  0.71232575  0.40755874  0.93235244    -0.12510
C909        C  0.82376621  0.61449979  0.17822237    -0.10950
C910        C  0.82722415  0.64765282  0.19373580    -0.12510
C911        C  0.81866398  0.37721528  0.17255201    -0.10950
C912        C  0.81470727  0.41233385  0.15983410    -0.12510
C913        C  0.94901165  0.65860159  0.29840454    -0.10950
C914        C  0.92493144  0.68489357  0.28699583    -0.12510
C915        C  0.94154135  0.39334620  0.26299316    -0.10950
C916        C  0.92013940  0.36366658  0.25834689    -0.12510
C917        C  0.15045561  0.41971013  0.40023392    -0.10950
C918        C  0.12059445  0.44284587  0.39854655    -0.12510
C919        C  0.10751430  0.35523647  0.27517918    -0.10950
C920        C  0.08371010  0.38414211  0.27538602    -0.12510
C921        C  0.08836487  0.61519840  0.24829824    -0.10950
C922        C  0.10981916  0.64566578  0.25058218    -0.12510
C923        C  0.86721888  0.60964041  0.37760681    -0.10950
C924        C  0.89250226  0.58222392  0.37228943    -0.12510
C925        C  0.21049221  0.66522307  0.16417009    -0.10950
C926        C  0.21391955  0.63342782  0.14600653    -0.12510
C927        C  0.20514427  0.37263502  0.18440403    -0.10950
C928        C  0.20596187  0.40306472  0.16219374    -0.12510
C929        C  0.31437664  0.42827597  0.22036396    -0.10950
C930        C  0.31260729  0.44895702  0.18852732    -0.12510
C931        C  0.43954069  0.69957221  0.20002600    -0.10950
C932        C  0.41400056  0.69678131  0.22750190    -0.12510
C933        C  0.31045811  0.60624411  0.22348498    -0.10950
C934        C  0.30950772  0.58606301  0.19299860    -0.12510
C935        C  0.12286671  0.58871195  0.37708084    -0.10950
C936        C  0.15302095  0.60938165  0.38078027    -0.12510
C937        C  0.65997885  0.81702745  0.97582104    -0.10950
C938        C  0.62974948  0.81429674  0.99784588    -0.12510
C939        C  0.65952152  0.91339267  0.88186046    -0.10950
C940        C  0.62896532  0.93470461  0.87926032    -0.12510
C941        C  0.37008661  0.82256540  0.99021674    -0.10950
C942        C  0.39817961  0.81491176  0.01350696    -0.12510
C943        C  0.36946229  0.92670001  0.88795093    -0.10950
C944        C  0.39754261  0.95009366  0.88070018    -0.12510
C945        C  0.21152861  0.62646442  0.01218845    -0.10950
C946        C  0.20860651  0.65801658  0.99122453    -0.12510
C947        C  0.19798002  0.39114308  0.99996080    -0.10950
C948        C  0.19514123  0.36109979  0.97920884    -0.12510
C949        C  0.89829727  0.43101975  0.77351555    -0.10950
C950        C  0.86947136  0.40813559  0.77215229    -0.12510
C951        C  0.11641906  0.42883659  0.76459690    -0.10950
C952        C  0.14887268  0.40961928  0.76524080    -0.12510
C953        C  0.11055399  0.61518483  0.88584401    -0.10950
C954        C  0.12308074  0.64970096  0.88952286    -0.12510
C955        C  0.09900717  0.40778857  0.87368754    -0.10950
C956        C  0.11351702  0.37318131  0.87650375    -0.12510
C957        C  0.15736430  0.62951496  0.78242085    -0.10950
C958        C  0.12207876  0.61805470  0.78115118    -0.12510
C959        C  0.32578732  0.90524229  0.66295280    -0.10950
C960        C  0.33177359  0.87770227  0.68780597    -0.12510
C961        C  0.42577993  0.85028914  0.79389438    -0.10950
C962        C  0.45167645  0.87318042  0.80498760    -0.12510
C963        C  0.42584400  0.72948989  0.91534906    -0.10950
C964        C  0.45248528  0.73952485  0.93802163    -0.12510
C965        C  0.33158366  0.62276363  0.94004332    -0.10950
C966        C  0.32663260  0.59696374  0.96692880    -0.12510
C967        C  0.17016995  0.70494148  0.68312407    -0.10950
C968        C  0.14078262  0.70467685  0.66065406    -0.12510
C969        C  0.12796487  0.70758503  0.49831949    -0.10950
C970        C  0.15749809  0.70302534  0.47595112    -0.12510
C971        C  0.87072765  0.70924396  0.47877187    -0.10950
C972        C  0.89930795  0.71172864  0.50189533    -0.12510
C973        C  0.08717582  0.83163812  0.69946718    -0.10950
C974        C  0.10947886  0.83475868  0.72854566    -0.12510
C975        C  0.20969740  0.92823129  0.72340919    -0.10950
C976        C  0.21143486  0.94976554  0.69221582    -0.12510
C977        C  0.07748650  0.81446728  0.46522852    -0.10950
C978        C  0.09942461  0.81471779  0.43441287    -0.12510
C979        C  0.19278148  0.91313743  0.42770016    -0.10950
C980        C  0.19616407  0.93395521  0.45771406    -0.12510
C981        C  0.90569898  0.64564966  0.87721371    -0.10950
C982        C  0.92177416  0.61147853  0.87959493    -0.12510
C983        C  0.81879065  0.64810018  0.96886725    -0.10950
C984        C  0.82125921  0.61418742  0.98555773    -0.12510
C985        C  0.93534594  0.39106632  0.87694287    -0.10950
C986        C  0.91486322  0.36062238  0.88167548    -0.12510
C987        C  0.81878030  0.36337374  0.97567691    -0.10950
C988        C  0.81588365  0.39393523  0.99588884    -0.12510
C989        C  0.81615584  0.93645155  0.69000612    -0.10950
C990        C  0.81826461  0.91541093  0.72109489    -0.12510
C991        C  0.90798234  0.81997495  0.72037352    -0.10950
C992        C  0.92835911  0.81690920  0.68926907    -0.12510
C993        C  0.81224655  0.94949678  0.45740784    -0.10950
C994        C  0.81669569  0.92409716  0.43096794    -0.12510
C995        C  0.91546018  0.81932359  0.43105518    -0.10950
C996        C  0.93689462  0.81424335  0.46080968    -0.12510
C997        C  0.32010546  0.85960226  0.47157366    -0.10950
C998        C  0.32205246  0.88813080  0.49461794    -0.12510
C999        C  0.41301026  0.84716604  0.37609339    -0.10950
C1000       C  0.43563476  0.87638011  0.37468044    -0.12510
C1001       C  0.86389490  0.32706877  0.47030147    -0.10950
C1002       C  0.89093601  0.32485899  0.49528205    -0.12510
C1003       C  0.86186410  0.42243093  0.36321339    -0.10950
C1004       C  0.88806673  0.44883346  0.36116058    -0.12510
C1005       C  0.44188043  0.31249187  0.94335833    -0.10950
C1006       C  0.42100680  0.31482327  0.91295709    -0.12510
C1007       C  0.32886471  0.40955720  0.92476743    -0.10950
C1008       C  0.32886853  0.43142649  0.95418147    -0.12510
C1009       C  0.69036181  0.87785991  0.67009274    -0.10950
C1010       C  0.68768272  0.91050514  0.65053334    -0.12510
C1011       C  0.60740409  0.87924114  0.75465050    -0.10950
C1012       C  0.58865065  0.91207534  0.75148152    -0.12510
C1013       C  0.87791024  0.61644376  0.77015161    -0.10950
C1014       C  0.91221086  0.60166936  0.77402644    -0.12510
C1015       C  0.87480996  0.70759296  0.66732223    -0.10950
C1016       C  0.90556280  0.70833288  0.64519461    -0.12510
C1017       C  0.61376577  0.68931093  0.94662299    -0.10950
C1018       C  0.59357958  0.68737137  0.97883130    -0.12510
C1019       C  0.71288166  0.61212899  0.93633489    -0.10950
C1020       C  0.71619203  0.60020309  0.97177996    -0.12510
loop_ 
_geom_bond_atom_site_label_1 
_geom_bond_atom_site_label_2 
_geom_bond_distance 
_geom_bond_site_symmetry_2 
_ccdc_geom_bond_type 
C1            C2   1.431       .  A
C1            C6   1.376       .  A
C1         C1017   1.461       .  S
C2            C3   1.445       .  A
C2            H7   1.078       .  S
C3            C4   1.426       .  A
C3           C29   1.562       .  S
C4            C5   1.405       .  A
C4            H8   1.079       .  S
C5            C6   1.374       .  A
C5         C1019   1.435       .  S
C6            H9   1.090       .  S
C10          C11   1.425       .  A
C10          C15   1.375       .  A
C10        C1015   1.451       .  S
C11          C12   1.441       .  A
C11          H16   1.080       .  S
C12          C13   1.428       .  A
C12          C31   1.560       .  S
C13          C14   1.409       .  A
C13          H17   1.079       .  S
C14          C15   1.373       .  A
C14        C1013   1.438       .  S
C15          H18   1.090       .  S
C19          C20   1.440       .  A
C19          C24   1.442       .  A
C19          C33   1.570       .  S
C20          C21   1.426       .  A
C20          H25   1.078       .  S
C21          C22   1.371       .  A
C21        C1011   1.454       .  S
C22          C23   1.371       .  A
C22          H26   1.090       .  S
C23          C24   1.426       .  A
C23        C1009   1.455       .  S
C24          H27   1.079       .  S
C28          C29   1.447       .  A
C28          C33   1.451       .  A
C28         C233   1.541       .  S
C29          C30   1.449       .  A
C30          C31   1.445       .  A
C30          C92   1.561       .  S
C31          C32   1.442       .  A
C32          C33   1.445       .  A
C32          C70   1.539       .  S
C34          C35   1.414       .  A
C34          C39   1.372       .  A
C34        C1007   1.434       .  S
C35          C36   1.429       .  A
C35          H40   1.077       .  S
C36          C37   1.430       .  A
C36         C688   1.544       .  S
C37          C38   1.410       .  A
C37          H41   1.077       .  S
C38          C39   1.372       .  A
C38        C1006   1.431       .  S
C39          H42   1.090       .  S
C43          C44   1.417       .  A
C43          C48   1.371       .  A
C43        C1003   1.447       .  S
C44          C45   1.442       .  A
C44          H49   1.078       .  S
C45          C46   1.427       .  A
C45         C470   1.555       .  S
C46          C47   1.415       .  A
C46          H50   1.079       .  S
C47          C48   1.373       .  A
C47        C1001   1.430       .  S
C48          H51   1.090       .  S
C52          C53   1.370       .  A
C52          C57   1.410       .  A
C52         C999   1.432       .  S
C53          C54   1.370       .  A
C53          H58   1.090       .  S
C54          C55   1.418       .  A
C54         C997   1.439       .  S
C55          C56   1.434       .  A
C55          H59   1.075       .  S
C56          C57   1.431       .  A
C56         C251   1.553       .  S
C57          H60   1.077       .  S
C61          C62   1.424       .  A
C61          C66   1.436       .  A
C61         C400   1.548       .  S
C62          C63   1.406       .  A
C62          H67   1.078       .  S
C63          C64   1.377       .  A
C63         C995   1.432       .  S
C64          C65   1.376       .  A
C64          H68   1.089       .  S
C65          C66   1.418       .  A
C65         C994   1.445       .  S
C66          H69   1.079       .  S
C70          C71   1.426       .  A
C70          C75   1.425       .  A
C71          C72   1.411       .  A
C71          H76   1.077       .  S
C72          C73   1.374       .  A
C72         C990   1.428       .  S
C73          C74   1.371       .  A
C73          H77   1.090       .  S
C74          C75   1.403       .  A
C74         C991   1.427       .  S
C75          H78   1.076       .  S
C79          C80   1.428       .  A
C79          C84   1.425       .  A
C79         C617   1.539       .  S
C80          C81   1.409       .  A
C80          H85   1.079       .  S
C81          C82   1.372       .  A
C81         C987   1.432       .  S
C82          C83   1.372       .  A
C82          H86   1.090       .  S
C83          C84   1.407       .  A
C83         C986   1.427       .  S
C84          H87   1.080       .  S
C88          C89   1.374       .  A
C88          C93   1.415       .  A
C88         C981   1.450       .  S
C89          C90   1.376       .  A
C89          H94   1.090       .  S
C90          C91   1.414       .  A
C90         C983   1.442       .  S
C91          C92   1.433       .  A
C91          H95   1.077       .  S
C92          C93   1.436       .  A
C93          H96   1.076       .  S
C97          C98   1.371       .  A
C97         C102   1.420       .  A
C97         C978   1.448       .  S
C98          C99   1.371       .  A
C98         H103   1.090       .  S
C99         C100   1.417       .  A
C99         C979   1.437       .  S
C100        C101   1.431       .  A
C100        H104   1.081       .  S
C101        C102   1.441       .  A
C101        C252   1.560       .  S
C102        H105   1.078       .  S
C106        C107   1.414       .  A
C106        C111   1.370       .  A
C106        C975   1.443       .  S
C107        C108   1.437       .  A
C107        H112   1.078       .  S
C108        C109   1.429       .  A
C108        C163   1.550       .  S
C109        C110   1.417       .  A
C109        H113   1.080       .  S
C110        C111   1.373       .  A
C110        C974   1.432       .  S
C111        H114   1.090       .  S
O115        C123   1.280       .  A
O115       Co135   2.016       .  S
O116        C124   1.282       .  A
O116       Co136   1.982       .  S
O117        C125   1.261       .  A
O117       Co137   1.948       .  S
O118        C126   1.305       .  A
O118       Co138   2.137   1_655  S
O119        C125   1.288       .  A
O119       Co136   2.010       .  S
O120        C126   1.279       .  A
O120       Co135   1.917       .  S
O121        C124   1.298       .  A
O121       Co138   2.060       .  S
O122        C123   1.254       .  A
O122       Co137   1.938   1_655  S
C123        C992   1.417       .  S
C124        C977   1.446       .  S
C125        C973   1.421       .  S
C126        C996   1.431       .  S
O127        C140   1.308       .  A
O127       Co135   2.141       .  S
O128        C141   1.260       .  A
O128       Co136   1.947       .  S
O129        C142   1.285       .  A
O129       Co137   1.983   1_655  S
O130        C143   1.281       .  A
O130       Co138   2.015       .  S
O131        C143   1.256       .  A
O131       Co136   1.943       .  S
O132        C142   1.299       .  A
O132       Co135   2.060       .  S
O133        C140   1.279       .  A
O133       Co138   1.920   1_655  S
O134        C141   1.288       .  A
O134       Co137   2.014       .  S
Co135       O139   1.943   1_655  S
Co136       O139   2.006       .  S
Co137       O139   2.004       .  S
Co138       O139   1.944       .  S
C140        C972   1.434       .  S
C141        C968   1.427       .  S
C142       C1016   1.448       .  S
C143        C969   1.417       .  S
C144        C145   1.394       .  A
C144        C149   1.377       .  A
C144        C963   1.428       .  S
C145        C146   1.421       .  A
C145        H150   1.065       .  S
C146        C147   1.421       .  A
C146        C166   1.537       .  S
C147        C148   1.410       .  A
C147        H151   1.078       .  S
C148        C149   1.381       .  A
C148        C965   1.427       .  S
C149        H152   1.087       .  S
C153        C154   1.381       .  A
C153        C158   1.409       .  A
C153        C960   1.428       .  S
C154        C155   1.379       .  A
C154        H159   1.087       .  S
C155        C156   1.392       .  A
C155        C961   1.424       .  S
C156        C157   1.417       .  A
C156        H160   1.065       .  S
C157        C158   1.421       .  A
C157        C162   1.533       .  S
C158        H161   1.078       .  S
C162        C163   1.435       .  A
C162        C167   1.432       .  A
C163        C164   1.448       .  A
C164        C165   1.452       .  A
C164        C168   1.549       .  S
C165        C166   1.431       .  A
C165        C217   1.547       .  S
C166        C167   1.426       .  A
C167        C224   1.548       .  S
C168        C169   1.433       .  A
C168        C173   1.427       .  A
C169        C170   1.422       .  A
C169        H174   1.078       .  S
C170        C171   1.379       .  A
C170        C967   1.440       .  S
C171        C172   1.373       .  A
C171        H175   1.090       .  S
C172        C173   1.402       .  A
C172        C957   1.439       .  S
C173        H176   1.075       .  S
O177        C185   1.248       .  A
O177       Co197   1.943   1_655  S
O178        C186   1.259       .  A
O178       Co198   1.964       .  S
O179        C187   1.307       .  A
O179       Co199   2.131       .  S
O180        C188   1.264       .  A
O180       Co200   2.017       .  S
O181        C187   1.249       .  A
O181       Co198   1.849   1_655  S
O182        C188   1.251       .  A
O182       Co197   1.944       .  S
O183        C186   1.266       .  A
O183       Co200   2.016       .  S
O184        C185   1.248       .  A
O184       Co199   2.010       .  S
C185        C982   1.453       .  S
C186        C955   1.440       .  S
C187        C985   1.418       .  S
C188        C953   1.432       .  S
O189        C202   1.261       .  A
O189       Co197   2.015       .  S
O190        C203   1.304       .  A
O190       Co198   2.120   1_655  S
O191        C204   1.261       .  A
O191       Co199   1.962       .  S
O192        C205   1.249       .  A
O192       Co200   1.947       .  S
O193        C205   1.251       .  A
O193       Co198   2.006       .  S
O194        C204   1.269       .  A
O194       Co197   2.018   1_655  S
O195        C202   1.252       .  A
O195       Co200   1.947       .  S
O196        C203   1.247       .  A
O196       Co199   1.856       .  S
Co197       O201   2.100       .  S
Co198       O201   2.053       .  S
Co199       O201   2.055   1_655  S
Co200       O201   2.103       .  S
C202        C958   1.438       .  S
C203        C949   1.421       .  S
C204       C1014   1.439       .  S
C205        C951   1.447       .  S
C206        C207   1.372       .  A
C206        C211   1.406       .  A
C206        C956   1.441       .  S
C207        C208   1.377       .  A
C207        H212   1.090       .  S
C208        C209   1.418       .  A
C208        C948   1.433       .  S
C209        C210   1.428       .  A
C209        H213   1.081       .  S
C210        C211   1.431       .  A
C210        C689   1.547       .  S
C211        H214   1.076       .  S
C215        C216   1.418       .  A
C215        C220   1.376       .  A
C215        C946   1.446       .  S
C216        C217   1.436       .  A
C216        H221   1.080       .  S
C217        C218   1.424       .  A
C218        C219   1.405       .  A
C218        H222   1.079       .  S
C219        C220   1.375       .  A
C219        C954   1.432       .  S
C220        H223   1.090       .  S
C224        C225   1.429       .  A
C224        C229   1.432       .  A
C225        C226   1.415       .  A
C225        H230   1.081       .  S
C226        C227   1.379       .  A
C226        C943   1.440       .  S
C227        C228   1.378       .  A
C227        H231   1.088       .  S
C228        C229   1.414       .  A
C228        C941   1.444       .  S
C229        H232   1.081       .  S
C233        C234   1.425       .  A
C233        C238   1.428       .  A
C234        C235   1.408       .  A
C234        H239   1.077       .  S
C235        C236   1.372       .  A
C235        C939   1.425       .  S
C236        C237   1.371       .  A
C236        H240   1.090       .  S
C237        C238   1.409       .  A
C237        C937   1.432       .  S
C238        H241   1.077       .  S
C242        C243   1.425       .  A
C242        C247   1.426       .  A
C242        C253   1.539       .  S
C243        C244   1.406       .  A
C243        H248   1.079       .  S
C244        C245   1.373       .  A
C244        C970   1.425       .  S
C245        C246   1.372       .  A
C245        H249   1.090       .  S
C246        C247   1.409       .  A
C246        C936   1.430       .  S
C247        H250   1.077       .  S
C251        C252   1.456       .  A
C251        C256   1.449       .  A
C252        C253   1.447       .  A
C253        C254   1.435       .  A
C254        C255   1.437       .  A
C254        C787   1.559       .  S
C255        C256   1.438       .  A
C255        C257   1.544       .  S
C256        C444   1.560       .  S
C257        C258   1.427       .  A
C257        C262   1.431       .  A
C258        C259   1.405       .  A
C258        H263   1.078       .  S
C259        C260   1.374       .  A
C259        C933   1.429       .  S
C260        C261   1.374       .  A
C260        H264   1.089       .  S
C261        C262   1.415       .  A
C261        C932   1.437       .  S
C262        H265   1.079       .  S
O266        C274   1.285   1_554  A
O266       Co286   2.007       .  S
O267        C275   1.279       .  A
O267       Co287   1.926       .  S
O268        C276   1.261       .  A
O268       Co288   1.961   1_556  S
O269        C277   1.300       .  A
O269       Co289   2.064       .  S
O270        C276   1.278   1_554  A
O270       Co287   2.004       .  S
O271        C277   1.283       .  A
O271       Co286   1.984       .  S
O272        C275   1.304       .  A
O272       Co289   2.127       .  S
O273        C274   1.259       .  A
O273       Co288   1.940   1_556  S
C274       C1008   1.419       .  S
C275        C934   1.427       .  S
C276        C966   1.419       .  S
C277        C930   1.445       .  S
O278        C291   1.256       .  A
O278       Co286   1.940       .  S
O279        C292   1.303       .  A
O279       Co287   2.076       .  S
O280        C293   1.287       .  A
O280       Co288   2.013       .  S
O281        C294   1.283       .  A
O281       Co289   1.932       .  S
O282        C294   1.303       .  A
O282       Co287   2.119       .  S
O283        C293   1.260       .  A
O283       Co286   1.948       .  S
O284        C291   1.283       .  A
O284       Co289   2.021       .  S
O285        C292   1.279       .  A
O285       Co288   1.977       .  S
Co286       O290   2.001       .  S
Co287       O290   1.939       .  S
Co288       O290   2.003       .  S
Co289       O290   1.945       .  S
C291        C928   1.420       .  S
C292        C945   1.444       .  S
C293        C947   1.422   1_554  S
C294        C926   1.430       .  S
O295        C303   1.300       .  A
O295       Co315   2.073       .  S
O296        C304   1.264       .  A
O296       Co316   1.975       .  S
O297        C305   1.293       .  A
O297       Co317   2.019       .  S
O298        C306   1.283       .  A
O298       Co318   1.976   1_655  S
O299        C305   1.260       .  A
O299       Co316   1.943       .  S
O300        C306   1.298       .  A
O300       Co315   2.073       .  S
O301        C304   1.282       .  A
O301       Co318   2.000       .  S
O302        C303   1.295       .  A
O302       Co317   1.984   1_655  S
C303       C1004   1.445       .  S
C304        C935   1.420       .  S
C305        C918   1.431       .  S
C306        C924   1.442       .  S
O307        C320   1.320       .  A
O307       Co315   2.161       .  S
O308        C321   1.283       .  A
O308       Co316   2.007       .  S
O309        C322   1.248       .  A
O309       Co317   1.938   1_655  S
O310        C323   1.245       .  A
O310       Co318   1.966       .  S
O311        C323   1.276       .  A
O311       Co316   2.002       .  S
O312        C322   1.280       .  A
O312       Co315   2.046       .  S
O313        C320   1.273       .  A
O313       Co318   1.866   1_655  S
O314        C321   1.259       .  A
O314       Co317   1.955       .  S
Co315       O319   2.050   1_655  S
Co316       O319   2.053       .  S
Co317       O319   2.078       .  S
Co318       O319   1.964       .  S
C320        C913   1.427       .  S
C321        C920   1.422       .  S
C322        C915   1.433       .  S
C323        C921   1.444       .  S
C324        C325   1.430       .  A
C324        C329   1.427       .  A
C324        C823   1.545       .  S
C325        C326   1.414       .  A
C325        H330   1.078       .  S
C326        C327   1.374       .  A
C326        C919   1.429       .  S
C327        C328   1.369       .  A
C327        H331   1.090       .  S
C328        C329   1.405       .  A
C328        C927   1.431       .  S
C329        H332   1.074       .  S
C333        C334   1.376       .  A
C333        C338   1.403       .  A
C333        C911   1.430       .  S
C334        C335   1.377       .  A
C334        H339   1.089       .  S
C335        C336   1.415       .  A
C335        C916   1.440       .  S
C336        C337   1.432       .  A
C336        H340   1.080       .  S
C337        C338   1.420       .  A
C337        C471   1.541       .  S
C338        H341   1.078       .  S
C342        C343   1.381       .  A
C342        C347   1.399       .  A
C342        C914   1.428       .  S
C343        C344   1.380       .  A
C343        H348   1.088       .  S
C344        C345   1.410       .  A
C344        C910   1.438       .  S
C345        C346   1.423       .  A
C345        H349   1.078       .  S
C346        C347   1.424       .  A
C346        C398   1.536       .  S
C347        H350   1.080       .  S
O351        C359   1.249   1_556  A
O351       Co371   2.006   1_556  S
O352        C360   1.268       .  A
O352       Co372   2.016       .  S
O353        C361   1.255       .  A
O353       Co373   1.952       .  S
O354        C362   1.246       .  A
O354       Co374   1.855       .  S
O355        C361   1.265       .  A
O355       Co372   2.016       .  S
O356        C362   1.306       .  A
O356       Co371   2.135       .  S
O357        C360   1.257       .  A
O357       Co374   1.955       .  S
O358        C359   1.247       .  A
O358       Co373   1.941       .  S
C359        C984   1.445   1_554  S
C360        C912   1.429       .  S
C361        C909   1.435       .  S
C362        C988   1.424   1_554  S
O363        C376   1.249       .  A
O363       Co371   1.862   1_556  S
O364        C377   1.254       .  A
O364       Co372   1.949       .  S
O365        C378   1.270       .  A
O365       Co373   2.022       .  S
O366        C379   1.250       .  A
O366       Co374   1.993       .  S
O367        C379   1.249       .  A
O367       Co372   1.952       .  S
O368        C378   1.259       .  A
O368       Co371   1.955       .  S
O369        C376   1.303   1_554  A
O369       Co374   2.126       .  S
O370        C377   1.262       .  A
O370       Co373   2.014       .  S
Co371       O375   2.056       .  S
Co372       O375   2.091       .  S
Co373       O375   2.092       .  S
Co374       O375   2.037       .  S
C376        C907   1.423       .  S
C377        C903   1.438       .  S
C378       C1020   1.434   1_554  S
C379        C906   1.433       .  S
C380        C381   1.380       .  A
C380        C385   1.416       .  A
C380        C902   1.437       .  S
C381        C382   1.380       .  A
C381        H386   1.087       .  S
C382        C383   1.395       .  A
C382        C899   1.426       .  S
C383        C384   1.423       .  A
C383        H387   1.079       .  S
C384        C385   1.426       .  A
C384        C401   1.536       .  S
C385        H388   1.077       .  S
C389        C390   1.410       .  A
C389        C394   1.378       .  A
C389        C971   1.437       .  S
C390        C391   1.427       .  A
C390        H395   1.078       .  S
C391        C392   1.437       .  A
C391        C399   1.551       .  S
C392        C393   1.418       .  A
C392        H396   1.080       .  S
C393        C394   1.377       .  A
C393        C923   1.447       .  S
C394        H397   1.088       .  S
C398        C399   1.427       .  A
C398        C403   1.443       .  A
C399        C400   1.428       .  A
C400        C401   1.433       .  A
C401        C402   1.446       .  A
C402        C403   1.445       .  A
C402        C453   1.553       .  S
C403        C404   1.543       .  S
C404        C405   1.424       .  A
C404        C409   1.429       .  A
C405        C406   1.402       .  A
C405        H410   1.075       .  S
C406        C407   1.372       .  A
C406        C904   1.439       .  S
C407        C408   1.379       .  A
C407        H411   1.089       .  S
C408        C409   1.417       .  A
C408        C898   1.432       .  S
C409        H412   1.080       .  S
O413        C421   1.262       .  A
O413       Co433   1.971       .  S
O414        C422   1.297       .  A
O414       Co434   2.059       .  S
O415        C423   1.281       .  A
O415       Co435   1.975       .  S
O416        C424   1.290       .  A
O416       Co436   2.008       .  S
O417        C423   1.298       .  A
O417       Co434   2.081       .  S
O418        C424   1.263       .  A
O418       Co433   1.959       .  S
O419        C422   1.296       .  A
O419       Co436   1.986       .  S
O420        C421   1.282       .  A
O420       Co435   2.001       .  S
C421        C938   1.423   1_554  S
C422        C895   1.436       .  S
C423        C942   1.439       .  S
C424        C894   1.436       .  S
O425        C438   1.282       .  A
O425       Co433   2.008       .  S
O426        C439   1.318   1_554  A
O426       Co434   2.152       .  S
O427        C440   1.244       .  A
O427       Co435   1.961       .  S
O428        C441   1.246       .  A
O428       Co436   1.933       .  S
O429        C441   1.278       .  A
O429       Co434   2.039       .  S
O430        C440   1.277       .  A
O430       Co433   2.009       .  S
O431        C438   1.260       .  A
O431       Co436   1.964       .  S
O432        C439   1.275       .  A
O432       Co435   1.875   1_556  S
Co433       O437   2.056       .  S
Co434       O437   2.050       .  S
Co435       O437   1.969       .  S
Co436       O437   2.082       .  S
C438        C897   1.426       .  S
C439        C964   1.423       .  S
C440       C1018   1.447   1_554  S
C441        C931   1.429       .  S
C442        C443   1.412       .  A
C442        C447   1.372       .  A
C442        C896   1.437       .  S
C443        C444   1.434       .  A
C443        H448   1.079       .  S
C444        C445   1.438       .  A
C445        C446   1.425       .  A
C445        H449   1.079       .  S
C446        C447   1.371       .  A
C446        C892   1.447       .  S
C447        H450   1.090       .  S
C451        C452   1.408       .  A
C451        C456   1.376       .  A
C451        C889   1.434       .  S
C452        C453   1.428       .  A
C452        H457   1.080       .  S
C453        C454   1.439       .  A
C454        C455   1.425       .  A
C454        H458   1.079       .  S
C455        C456   1.374       .  A
C455        C893   1.451       .  S
C456        H459   1.089       .  S
C460        C461   1.426       .  A
C460        C465   1.423       .  A
C460        C472   1.541       .  S
C461        C462   1.414       .  A
C461        H466   1.078       .  S
C462        C463   1.381       .  A
C462        C905   1.436       .  S
C463        C464   1.378       .  A
C463        H467   1.088       .  S
C464        C465   1.396       .  A
C464        C888   1.431       .  S
C465        H468   1.070       .  S
C469        C470   1.453       .  A
C469        C474   1.435       .  A
C469        C662   1.547       .  S
C470        C471   1.439       .  A
C471        C472   1.440       .  A
C472        C473   1.431       .  A
C473        C474   1.434       .  A
C473        C778   1.560       .  S
C474        C475   1.535       .  S
C475        C476   1.416       .  A
C475        C480   1.429       .  A
C476        C477   1.396       .  A
C476        H481   1.070       .  S
C477        C478   1.377       .  A
C477        C885   1.420       .  S
C478        C479   1.377       .  A
C478        H482   1.088       .  S
C479        C480   1.412       .  A
C479        C884   1.434       .  S
C480        H483   1.079       .  S
O484        C492   1.275       .  A
O484       Co504   2.008       .  S
O485        C493   1.313       .  A
O485       Co505   2.023       .  S
O486        C494   1.269       .  A
O486       Co506   1.982       .  S
O487        C495   1.236       .  A
O487       Co507   1.926       .  S
O488        C494   1.291       .  A
O488       Co505   2.026   1_565  S
O489        C495   1.268       .  A
O489       Co504   1.997   1_545  S
O490        C493   1.290       .  A
O490       Co507   1.944       .  S
O491        C492   1.249       .  A
O491       Co506   1.944       .  S
C492       C1000   1.426       .  S
C493        C886   1.417       .  S
C494        C901   1.425       .  S
C495        C881   1.443       .  S
O496        C509   1.264       .  A
O496       Co504   1.964   1_545  S
O497        C510   1.300       .  A
O497       Co505   2.095   1_565  S
O498        C511   1.295       .  A
O498       Co506   2.014       .  S
O499        C512   1.271       .  A
O499       Co507   1.994       .  S
O500        C512   1.279       .  A
O500       Co505   2.046       .  S
O501        C511   1.264       .  A
O501       Co504   1.951       .  S
O502        C509   1.282       .  A
O502       Co507   1.992       .  S
O503        C510   1.276       .  A
O503       Co506   1.963       .  S
Co504       O508   2.031   1_565  S
Co505       O508   1.975       .  S
Co506       O508   2.024   1_565  S
Co507       O508   2.033       .  S
C509        C879   1.417       .  S
C510        C890   1.434       .  S
C511        C891   1.431       .  S
C512        C877   1.441       .  S
O513        C521   1.259       .  A
O513       Co533   1.962   1_556  S
O514        C522   1.275       .  A
O514       Co534   1.870       .  S
O515        C523   1.275       .  A
O515       Co535   2.005       .  S
O516        C524   1.278   1_554  A
O516       Co536   2.039       .  S
O517        C523   1.242       .  A
O517       Co534   1.957       .  S
O518        C524   1.245       .  A
O518       Co533   1.931   1_556  S
O519        C522   1.319       .  A
O519       Co536   2.158       .  S
O520        C521   1.283   1_554  A
O520       Co535   2.010       .  S
C521       C1005   1.425       .  S
C522        C887   1.427       .  S
C523        C870   1.444       .  S
C524        C876   1.425       .  S
O525        C538   1.295       .  A
O525       Co533   1.980       .  S
O526        C539   1.285       .  A
O526       Co534   2.002       .  S
O527        C540   1.261       .  A
O527       Co535   1.953       .  S
O528        C541   1.298       .  A
O528       Co536   2.075       .  S
O529        C541   1.284       .  A
O529       Co534   1.982       .  S
O530        C540   1.290       .  A
O530       Co533   2.009       .  S
O531        C538   1.301       .  A
O531       Co536   2.073       .  S
O532        C539   1.263       .  A
O532       Co535   1.969       .  S
Co533       O537   2.081       .  S
Co534       O537   1.974       .  S
Co535       O537   2.055       .  S
Co536       O537   2.049       .  S
C538        C865   1.437       .  S
C539        C872   1.421       .  S
C540        C868   1.437       .  S
C541        C873   1.439       .  S
C542        C543   1.372       .  A
C542        C547   1.411       .  A
C542        C871   1.432       .  S
C543        C544   1.371       .  A
C543        H548   1.090       .  S
C544        C545   1.403       .  A
C544        C880   1.425       .  S
C545        C546   1.424       .  A
C545        H549   1.075       .  S
C546        C547   1.428       .  A
C546        C825   1.544       .  S
C547        H550   1.075       .  S
C551        C552   1.374       .  A
C551        C556   1.408       .  A
C551        C863   1.433       .  S
C552        C553   1.373       .  A
C552        H557   1.089       .  S
C553        C554   1.428       .  A
C553        C867   1.452       .  S
C554        C555   1.441       .  A
C554        H558   1.080       .  S
C555        C556   1.429       .  A
C555        C687   1.556       .  S
C556        H559   1.080       .  S
C560        C561   1.412       .  A
C560        C565   1.372       .  A
C560        C866   1.440       .  S
C561        C562   1.436       .  A
C561        H566   1.079       .  S
C562        C563   1.435       .  A
C562        C619   1.557       .  S
C563        C564   1.425       .  A
C563        H567   1.081       .  S
C564        C565   1.373       .  A
C564        C861   1.444       .  S
C565        H568   1.090       .  S
O569        C577   1.282       .  A
O569       Co589   1.997       .  S
O570        C578   1.294       .  A
O570       Co590   1.979       .  S
O571        C579   1.262       .  A
O571       Co591   1.953       .  S
O572        C580   1.296       .  A
O572       Co592   2.077   1_565  S
O573        C579   1.290       .  A
O573       Co590   2.009       .  S
O574        C580   1.280       .  A
O574       Co589   1.973       .  S
O575        C578   1.296       .  A
O575       Co592   2.056       .  S
O576        C577   1.262       .  A
O576       Co591   1.968   1_565  S
C577        C940   1.415       .  S
C578        C864   1.430       .  S
C579        C862   1.429       .  S
C580        C944   1.435       .  S
O581        C594   1.276       .  A
O581       Co589   1.873       .  S
O582        C595   1.260       .  A
O582       Co590   1.961       .  S
O583        C596   1.275       .  A
O583       Co591   2.004   1_565  S
O584        C597   1.277       .  A
O584       Co592   2.032       .  S
O585        C597   1.247       .  A
O585       Co590   1.936       .  S
O586        C596   1.242       .  A
O586       Co589   1.954       .  S
O587        C594   1.320       .  A
O587       Co592   2.155   1_565  S
O588        C595   1.281       .  A
O588       Co591   2.001       .  S
Co589       O593   1.961   1_565  S
Co590       O593   2.071       .  S
Co591       O593   2.049       .  S
Co592       O593   2.041       .  S
C594        C962   1.419       .  S
C595        C857   1.420       .  S
C596       C1012   1.438       .  S
C597        C859   1.423       .  S
C598        C599   1.370       .  A
C598        C603   1.405       .  A
C598        C908   1.431       .  S
C599        C600   1.374       .  A
C599        H604   1.090       .  S
C600        C601   1.415       .  A
C600        C875   1.431       .  S
C601        C602   1.430       .  A
C601        H605   1.080       .  S
C602        C603   1.428       .  A
C602        C618   1.545       .  S
C603        H606   1.077       .  S
C607        C608   1.407       .  A
C607        C612   1.370       .  A
C607        C950   1.430       .  S
C608        C609   1.429       .  A
C608        H613   1.077       .  S
C609        C610   1.424       .  A
C609        C616   1.540       .  S
C610        C611   1.408       .  A
C610        H614   1.078       .  S
C611        C612   1.372       .  A
C611        C855   1.425       .  S
C612        H615   1.090       .  S
C616        C617   1.429       .  A
C616        C621   1.441       .  A
C617        C618   1.426       .  A
C618        C619   1.436       .  A
C619        C620   1.455       .  A
C620        C621   1.455       .  A
C620        C622   1.543       .  S
C621        C671   1.565       .  S
C622        C623   1.427       .  A
C622        C627   1.430       .  A
C623        C624   1.408       .  A
C623        H628   1.076       .  S
C624        C625   1.372       .  A
C624        C858   1.428       .  S
C625        C626   1.372       .  A
C625        H629   1.090       .  S
C626        C627   1.412       .  A
C626        C853   1.432       .  S
C627        H630   1.076       .  S
O631        C639   1.264       .  A
O631       Co651   1.970   1_565  S
O632        C640   1.302       .  A
O632       Co652   2.078       .  S
O633        C641   1.285       .  A
O633       Co653   1.983       .  S
O634        C642   1.291       .  A
O634       Co654   2.017       .  S
O635        C641   1.298       .  A
O635       Co652   2.070   1_565  S
O636        C642   1.259       .  A
O636       Co651   1.947       .  S
O637        C640   1.293       .  A
O637       Co654   1.978       .  S
O638        C639   1.284       .  A
O638       Co653   2.000       .  S
C639        C989   1.417       .  S
C640        C851   1.438       .  S
C641        C993   1.439       .  S
C642        C849   1.431       .  S
O643        C656   1.282       .  A
O643       Co651   2.003       .  S
O644        C657   1.319       .  A
O644       Co652   2.156   1_565  S
O645        C658   1.243       .  A
O645       Co653   1.958       .  S
O646        C659   1.248       .  A
O646       Co654   1.939       .  S
O647        C659   1.277       .  A
O647       Co652   2.034       .  S
O648        C658   1.275       .  A
O648       Co651   2.004   1_565  S
O649        C656   1.260       .  A
O649       Co654   1.959       .  S
O650        C657   1.275       .  A
O650       Co653   1.868       .  S
Co651       O655   2.051       .  S
Co652       O655   2.044       .  S
Co653       O655   1.969   1_565  S
Co654       O655   2.074       .  S
C656        C854   1.423       .  S
C657        C900   1.424       .  S
C658       C1010   1.439       .  S
C659        C883   1.426       .  S
C660        C661   1.410       .  A
C660        C665   1.371       .  A
C660        C852   1.441       .  S
C661        C662   1.437       .  A
C661        H666   1.079       .  S
C662        C663   1.426       .  A
C663        C664   1.417       .  A
C663        H667   1.080       .  S
C664        C665   1.375       .  A
C664        C848   1.431       .  S
C665        H668   1.089       .  S
C669        C670   1.418       .  A
C669        C674   1.370       .  A
C669        C845   1.445       .  S
C670        C671   1.440       .  A
C670        H675   1.079       .  S
C671        C672   1.438       .  A
C672        C673   1.426       .  A
C672        H676   1.080       .  S
C673        C674   1.370       .  A
C673        C850   1.446       .  S
C674        H677   1.091       .  S
C678        C679   1.376       .  A
C678        C683   1.414       .  A
C678        C860   1.432       .  S
C679        C680   1.374       .  A
C679        H684   1.089       .  S
C680        C681   1.406       .  A
C680        C843   1.435       .  S
C681        C682   1.430       .  A
C681        H685   1.077       .  S
C682        C683   1.427       .  A
C682        C692   1.543       .  S
C683        H686   1.079       .  S
C687        C688   1.447       .  A
C687        C692   1.440       .  A
C688        C689   1.452       .  A
C689        C690   1.438       .  A
C690        C691   1.430       .  A
C690        C760   1.548       .  S
C691        C692   1.427       .  A
C691        C769   1.541       .  S
O693        C701   1.257       .  A
O693       Co713   1.939       .  S
O694        C702   1.307       .  A
O694       Co714   2.140       .  S
O695        C703   1.285       .  A
O695       Co715   1.985       .  S
O696        C704   1.278       .  A
O696       Co716   2.004   1_565  S
O697        C703   1.300       .  A
O697       Co714   2.058       .  S
O698        C704   1.261       .  A
O698       Co713   1.961       .  S
O699        C702   1.278       .  A
O699       Co716   1.925       .  S
O700        C701   1.286       .  A
O700       Co715   2.009   1_565  S
C701        C998   1.426       .  S
C702        C844   1.433       .  S
C703        C842   1.444       .  S
C704        C959   1.419       .  S
O705        C718   1.279       .  A
O705       Co713   1.974       .  S
O706        C719   1.282       .  A
O706       Co714   2.021       .  S
O707        C720   1.260       .  A
O707       Co715   1.949   1_565  S
O708        C721   1.304       .  A
O708       Co716   2.130       .  S
O709        C721   1.281       .  A
O709       Co714   1.932       .  S
O710        C720   1.289       .  A
O710       Co713   2.018       .  S
O711        C718   1.300       .  A
O711       Co716   2.067   1_565  S
O712        C719   1.254       .  A
O712       Co715   1.934       .  S
Co713       O717   2.007       .  S
Co714       O717   1.951   1_545  S
Co715       O717   2.003   1_545  S
Co716       O717   1.946   1_545  S
C718        C976   1.441       .  S
C719        C838   1.418       .  S
C720        C980   1.426       .  S
C721        C839   1.436       .  S
O722        C730   1.284       .  A
O722       Co742   2.004   1_655  S
O723        C731   1.281       .  A
O723       Co743   1.926       .  S
O724        C732   1.254       .  A
O724       Co744   1.935       .  S
O725        C733   1.300       .  A
O725       Co745   2.062       .  S
O726        C732   1.282       .  A
O726       Co743   2.019   1_655  S
O727        C733   1.282       .  A
O727       Co742   1.978       .  S
O728        C731   1.305       .  A
O728       Co745   2.132       .  S
O729        C730   1.261       .  A
O729       Co744   1.949       .  S
C730       C1002   1.419       .  S
C731        C829   1.432       .  S
C732        C856   1.415       .  S
C733        C831   1.442       .  S
O734        C747   1.254       .  A
O734       Co742   1.935       .  S
O735        C748   1.300       .  A
O735       Co743   2.064   1_655  S
O736        C749   1.285       .  A
O736       Co744   2.005       .  S
O737        C750   1.281       .  A
O737       Co745   1.926       .  S
O738        C750   1.304       .  A
O738       Co743   2.128       .  S
O739        C749   1.262       .  A
O739       Co742   1.951   1_655  S
O740        C747   1.282       .  A
O740       Co745   2.021       .  S
O741        C748   1.282       .  A
O741       Co744   1.979       .  S
Co742       O746   1.998       .  S
Co743       O746   1.943       .  S
Co744       O746   2.000   1_655  S
Co745       O746   1.942       .  S
C747        C836   1.417       .  S
C748        C846   1.444       .  S
C749        C847   1.420       .  S
C750        C834   1.432       .  S
C751        C752   1.372       .  A
C751        C756   1.406       .  A
C751        C835   1.430       .  S
C752        C753   1.373       .  A
C752        H757   1.090       .  S
C753        C754   1.408       .  A
C753        C837   1.430       .  S
C754        C755   1.427       .  A
C754        H758   1.075       .  S
C755        C756   1.426       .  A
C755        C827   1.542       .  S
C756        H759   1.076       .  S
C760        C761   1.433       .  A
C760        C765   1.428       .  A
C761        C762   1.415       .  A
C761        H766   1.079       .  S
C762        C763   1.375       .  A
C762        C952   1.444       .  S
C763        C764   1.376       .  A
C763        H767   1.090       .  S
C764        C765   1.407       .  A
C764        C830   1.433       .  S
C765        H768   1.079       .  S
C769        C770   1.426       .  A
C769        C774   1.430       .  A
C770        C771   1.409       .  A
C770        H775   1.079       .  S
C771        C772   1.378       .  A
C771        C833   1.433       .  S
C772        C773   1.376       .  A
C772        H776   1.089       .  S
C773        C774   1.409       .  A
C773        C840   1.438       .  S
C774        H777   1.079       .  S
C778        C779   1.437       .  A
C778        C783   1.435       .  A
C779        C780   1.424       .  A
C779        H784   1.081       .  S
C780        C781   1.375       .  A
C780        C878   1.448       .  S
C781        C782   1.374       .  A
C781        H785   1.089       .  S
C782        C783   1.415       .  A
C782        C874   1.443       .  S
C783        H786   1.080       .  S
C787        C788   1.428       .  A
C787        C792   1.443       .  A
C788        C789   1.406       .  A
C788        H793   1.079       .  S
C789        C790   1.373       .  A
C789        C925   1.430       .  S
C790        C791   1.372       .  A
C790        H794   1.090       .  S
C791        C792   1.429       .  A
C791        C922   1.457       .  S
C792        H795   1.078       .  S
C796        C797   1.440       .  A
C796        C801   1.444       .  A
C796        C824   1.575       .  S
C797        C798   1.419       .  A
C797        H802   1.080       .  S
C798        C799   1.370       .  A
C798        C929   1.445       .  S
C799        C800   1.369       .  A
C799        H803   1.091       .  S
C800        C801   1.429       .  A
C800        C869   1.456       .  S
C801        H804   1.079       .  S
C805        C806   1.428       .  A
C805        C810   1.369       .  A
C805        C882   1.454       .  S
C806        C807   1.443       .  A
C806        H811   1.079       .  S
C807        C808   1.440       .  A
C807        C826   1.572       .  S
C808        C809   1.420       .  A
C808        H812   1.080       .  S
C809        C810   1.370       .  A
C809        C841   1.445       .  S
C810        H813   1.091       .  S
C814        C815   1.370       .  A
C814        C819   1.427       .  A
C814        C917   1.448       .  S
C815        C816   1.370       .  A
C815        H820   1.091       .  S
C816        C817   1.417       .  A
C816        C832   1.443       .  S
C817        C818   1.438       .  A
C817        H821   1.080       .  S
C818        C819   1.439       .  A
C818        C828   1.564       .  S
C819        H822   1.080       .  S
C823        C824   1.452       .  A
C823        C828   1.443       .  A
C824        C825   1.455       .  A
C825        C826   1.454       .  A
C826        C827   1.441       .  A
C827        C828   1.438       .  A
C829        C830   1.205       .  T
C831        C832   1.213       .  T
C833        C834   1.205       .  T
C835        C836   1.203       .  T
C837        C838   1.203       .  T
C839        C840   1.208       .  T
C841        C842   1.215       .  T
C843        C844   1.206       .  T
C845        C846   1.214       .  T
C847        C848   1.204       .  T
C849        C850   1.214       .  T
C851        C852   1.210       .  T
C853        C854   1.204       .  T
C855        C856   1.201       .  T
C857        C858   1.202       .  T
C859        C860   1.204       .  T
C861        C862   1.212       .  T
C863        C864   1.205       .  T
C865        C866   1.209   1_554  T
C867        C868   1.217   1_556  T
C869        C870   1.221       .  T
C871        C872   1.205       .  T
C873        C874   1.211       .  T
C875        C876   1.205       .  T
C877        C878   1.215       .  T
C879        C880   1.201       .  T
C881        C882   1.220       .  T
C883        C884   1.205       .  T
C885        C886   1.195       .  T
C887        C888   1.201       .  T
C889        C890   1.206       .  T
C891        C892   1.214       .  T
C893        C894   1.215       .  T
C895        C896   1.208       .  T
C897        C898   1.205       .  T
C899        C900   1.199       .  T
C901        C902   1.206       .  T
C903        C904   1.209       .  T
C905        C906   1.206       .  T
C907        C908   1.204       .  T
C909        C910   1.208       .  T
C911        C912   1.204       .  T
C913        C914   1.200       .  T
C915        C916   1.209       .  T
C917        C918   1.215       .  T
C919        C920   1.204       .  T
C921        C922   1.221       .  T
C923        C924   1.213       .  T
C925        C926   1.205       .  T
C927        C928   1.203       .  T
C929        C930   1.215       .  T
C931        C932   1.207       .  T
C933        C934   1.203       .  T
C935        C936   1.203       .  T
C937        C938   1.205       .  T
C939        C940   1.200       .  T
C941        C942   1.210   1_556  T
C943        C944   1.209       .  T
C945        C946   1.214   1_554  T
C947        C948   1.206       .  T
C949        C950   1.204       .  T
C951        C952   1.213       .  T
C953        C954   1.206       .  T
C955        C956   1.210       .  T
C957        C958   1.209       .  T
C959        C960   1.200       .  T
C961        C962   1.196       .  T
C963        C964   1.199       .  T
C965        C966   1.200       .  T
C967        C968   1.209       .  T
C969        C970   1.200       .  T
C971        C972   1.207       .  T
C973        C974   1.205       .  T
C975        C976   1.212       .  T
C977        C978   1.216       .  T
C979        C980   1.208       .  T
C981        C982   1.217       .  T
C983        C984   1.212       .  T
C985        C986   1.202       .  T
C987        C988   1.205       .  T
C989        C990   1.202       .  T
C991        C992   1.201       .  T
C993        C994   1.212       .  T
C995        C996   1.204       .  T
C997        C998   1.209       .  T
C999       C1000   1.206       .  T
C1001      C1002   1.203       .  T
C1003      C1004   1.214       .  T
C1005      C1006   1.205       .  T
C1007      C1008   1.205       .  T
C1009      C1010   1.219       .  T
C1011      C1012   1.219       .  T
C1013      C1014   1.210       .  T
C1015      C1016   1.217       .  T
C1017      C1018   1.223       .  T
C1019      C1020   1.207       .  T
