geometry optimzed in LAMMPS
_audit_creation_date              2020-11-30 
_audit_creation_method            'lammps2cif' 
_symmetry_space_group_name_H-M    'P1' 
_symmetry_Int_Tables_number       1 
_symmetry_cell_setting            triclinic 
loop_ 
_symmetry_equiv_pos_as_xyz 
  x,y,z 
_cell_length_a                    34.76196249326003 
_cell_length_b                    34.80851371064807 
_cell_length_c                    34.79478065823952 
_cell_angle_alpha                 90.01189130819913 
_cell_angle_beta                  90.03954241023568 
_cell_angle_gamma                 89.9873018625238 
loop_ 
_atom_site_label 
_atom_site_type_symbol 
_atom_site_fract_x 
_atom_site_fract_y 
_atom_site_fract_z 
_atom_site_charge 
O1          O  0.70378712  0.71031860  0.20901390    -0.88190
C2          C  0.73001676  0.70330029  0.32458425     0.87840
Mg3        Mg  0.74804706  0.70491291  0.16499575     1.58150
O4          O  0.70854294  0.79666782  0.29048784    -0.87920
O5          O  0.65816511  0.74810780  0.22984023    -0.75250
C6          C  0.88484950  0.82812842  0.21431373     0.92890
O7          O  0.77037594  0.65879071  0.24781031    -0.75060
O8          O  0.88025026  0.79621123  0.19703896    -0.82570
Mg9        Mg  0.70437083  0.66532581  0.25207210     1.57960
C10         C  0.78613743  0.88571236  0.32780363     0.92820
O11         O  0.63917273  0.66073498  0.26169284    -0.80830
H12         H  0.67294541  0.83509156  0.26676657    -0.06170
C13         C  0.82419875  0.77068284  0.29788574     0.87750
O14         O  0.75237378  0.77086797  0.15854949    -0.75340
O15         O  0.70983408  0.70955459  0.29608775    -0.88100
O16         O  0.76150102  0.86160238  0.34018093    -0.80910
C17         C  0.67217682  0.78662447  0.38511111     0.92930
C18         C  0.61530667  0.67254152  0.28681495     0.92780
Mg19       Mg  0.79525461  0.83594140  0.24825548     1.57950
O20         O  0.86054941  0.84069787  0.23864836    -0.80840
O21         O  0.72916933  0.84205387  0.25240473    -0.75080
O22         O  0.66033140  0.76157190  0.36117983    -0.80920
O23         O  0.69583634  0.62039529  0.20433730    -0.82630
O24         O  0.83995278  0.73876658  0.13982134    -0.80950
C25         C  0.70216676  0.82496158  0.27007641     0.87220
O26         O  0.79009859  0.79165981  0.20424038    -0.88090
O27         O  0.79585077  0.79106272  0.29148470    -0.88200
O28         O  0.84125255  0.75287170  0.27096612    -0.75250
Mg29       Mg  0.66460550  0.75228776  0.29587882     1.57970
O30         O  0.70374961  0.80453318  0.38040938    -0.82630
H31         H  0.66504649  0.73386790  0.17361047    -0.06350
O32         O  0.79095923  0.70449454  0.21014665    -0.87900
H33         H  0.82654380  0.66572235  0.23325038    -0.06180
H34         H  0.76678357  0.82703634  0.16537719    -0.06350
C35         C  0.79735168  0.67597444  0.23021181     0.87200
C36         C  0.67531411  0.73058396  0.20276748     0.87780
C37         C  0.76994595  0.79790473  0.17569522     0.87830
H38         H  0.83437663  0.76747249  0.32708187    -0.06330
O39         O  0.74750151  0.73033957  0.34181395    -0.75360
Mg40       Mg  0.83512791  0.74856044  0.20500923     1.58000
H41         H  0.73318960  0.67419056  0.33480414    -0.06350
C42         C  0.71331835  0.61580352  0.17254203     0.92820
O43         O  0.79605510  0.69644882  0.12023125    -0.82590
C44         C  0.82788440  0.71395562  0.11573714     0.92880
O45         O  0.61987999  0.70426198  0.30442737    -0.82570
Mg46       Mg  0.75166270  0.79633603  0.33552409     1.58180
O47         O  0.73828077  0.63972713  0.16049288    -0.80910
O48         O  0.80338889  0.88112904  0.29586938    -0.82600
O49         O  0.78589960  0.31173392  0.76888189    -0.88190
C50         C  0.77572519  0.25901496  0.66329058     0.87840
Mg51       Mg  0.80920912  0.28272756  0.81907482     1.58150
O52         O  0.68808687  0.26851720  0.71481599    -0.87920
O53         O  0.73340028  0.34111638  0.75124726    -0.75250
C54         C  0.71802759  0.11528105  0.83141414     0.92890
O55         O  0.84221781  0.24779769  0.73249924    -0.75060
O56         O  0.75185418  0.12916096  0.83486162    -0.82570
Mg57       Mg  0.81995921  0.30781800  0.71637730     1.57960
C58         C  0.61640841  0.16834948  0.71786169     0.92820
O59         O  0.80861377  0.36786512  0.68977488    -0.80830
H60         H  0.64766156  0.30088970  0.73956047    -0.06170
C61         C  0.74033861  0.16252850  0.72538114     0.87750
O62         O  0.74925597  0.26690239  0.84157718    -0.75340
O63         O  0.76986608  0.28459837  0.68709947    -0.88100
O64         O  0.63210183  0.18943953  0.69236474    -0.80910
C65         C  0.66909977  0.28159067  0.61601525     0.92930
C66         C  0.78304667  0.38343880  0.66858516     0.92780
Mg67       Mg  0.68122974  0.19107308  0.78380073     1.57950
O68         O  0.69254133  0.13113965  0.81035847    -0.80840
O69         O  0.65901632  0.25102880  0.76752239    -0.75080
O70         O  0.69028704  0.30714569  0.63155070    -0.80920
O71         O  0.87066303  0.33390961  0.74883375    -0.82630
O72         O  0.81110480  0.19136448  0.86847893    -0.80950
C73         C  0.66403757  0.27451042  0.74014176     0.87220
O74         O  0.73145743  0.21412062  0.81289776    -0.88090
O75         O  0.71525349  0.18685689  0.73122102    -0.88200
O76         O  0.76771678  0.15741771  0.74889516    -0.75250
Mg77       Mg  0.71715285  0.31857202  0.69138996     1.57970
O78         O  0.66597549  0.24783845  0.62999783    -0.82630
H79         H  0.76154076  0.35243735  0.80107475    -0.06350
O80         O  0.81325507  0.23001809  0.78518033    -0.87900
H81         H  0.85354835  0.19769333  0.76005729    -0.06180
H82         H  0.69921655  0.23929720  0.85320437    -0.06350
C83         C  0.83721009  0.22412557  0.75972634     0.87200
C84         C  0.76076397  0.33598454  0.77477599     0.87780
C85         C  0.72561956  0.23960946  0.83679477     0.87830
H86         H  0.73953108  0.14595943  0.69914313    -0.06330
O87         O  0.75208892  0.23169886  0.65855495    -0.75360
Mg88       Mg  0.78409702  0.17998358  0.80868585     1.59280
H89         H  0.80214526  0.25926728  0.64690399    -0.06350
C90         C  0.88465995  0.33061777  0.78260420     0.92820
O91         O  0.83538552  0.25067116  0.86985979    -0.82590
C92         C  0.83229620  0.21696052  0.88393771     0.92880
O93         O  0.74927974  0.36940258  0.66527722    -0.82570
Mg94       Mg  0.69207857  0.21583021  0.68096769     1.58180
O95         O  0.86916404  0.30927510  0.80799394    -0.80910
O96         O  0.63028576  0.16511844  0.75167365    -0.82600
O97         O  0.73206492  0.78549864  0.68835586    -0.88190
C98         C  0.83739693  0.77529412  0.74274641     0.87840
Mg99       Mg  0.68146697  0.80864071  0.71665717     1.58150
O100        O  0.78550738  0.68781027  0.73281199    -0.87920
O101        O  0.75016352  0.73293985  0.65953628    -0.75250
C102        C  0.66803829  0.71864038  0.88465685     0.92890
O103        O  0.76729732  0.84250460  0.75289345    -0.75060
O104        O  0.66458261  0.75233305  0.87060293    -0.82570
Mg105      Mg  0.78464923  0.81957383  0.69355577     1.57960
C106        C  0.78199836  0.61670482  0.83290271     0.92820
O107        O  0.81317226  0.80801103  0.63466940    -0.80830
H108        H  0.76107887  0.64725728  0.70032140    -0.06170
C109        C  0.77469340  0.74096143  0.83795876     0.87750
O110        O  0.65898953  0.74875181  0.73271146    -0.75340
O111        O  0.81325965  0.76944212  0.71746254    -0.88100
O112        O  0.80752570  0.63226242  0.81179505    -0.80910
C113        C  0.88426464  0.66812383  0.72002189     0.92930
C114        C  0.83480428  0.78241585  0.61982497     0.92780
Mg115      Mg  0.71631308  0.68147029  0.80965772     1.57950
O116        O  0.68946009  0.69322914  0.86924552    -0.80840
O117        O  0.73270997  0.65872388  0.74994563    -0.75080
O118        O  0.86900772  0.68967205  0.69469937    -0.80920
O119        O  0.75272681  0.87021800  0.66650856    -0.82630
O120        O  0.63117132  0.81068948  0.80749101    -0.80950
C121        C  0.76026694  0.66371000  0.72665297     0.87220
O122        O  0.68729201  0.73139847  0.78591542    -0.88090
O123        O  0.76902819  0.71541499  0.81407637    -0.88200
O124        O  0.75093169  0.76819622  0.84262275    -0.75250
Mg125      Mg  0.80960011  0.71678267  0.68325107     1.57970
O126        O  0.87028251  0.66504216  0.75379278    -0.82630
H127        H  0.70046705  0.76088515  0.64715112    -0.06350
O128        O  0.71470679  0.81295409  0.76969527    -0.87900
H129        H  0.73814548  0.85413248  0.80202551    -0.06180
H130        H  0.64720598  0.69896936  0.76060750    -0.06350
C131        C  0.73953118  0.83743198  0.77589468     0.87200
C132        C  0.72654905  0.76028284  0.66409715     0.87780
C133        C  0.66359825  0.72534767  0.76023409     0.87830
H134        H  0.80102641  0.74069556  0.85450307    -0.06330
O135        O  0.84243424  0.75160563  0.76992171    -0.75360
Mg136      Mg  0.69104766  0.78416390  0.81970630     1.58000
H137        H  0.85386849  0.80164231  0.74229323    -0.06350
C138        C  0.71878436  0.88404230  0.66908191     0.92820
O139        O  0.63024959  0.83471021  0.74803300    -0.82590
C140        C  0.61585460  0.83166823  0.78162544     0.92880
O141        O  0.83719624  0.74861900  0.63367371    -0.82570
Mg142      Mg  0.81938741  0.69183409  0.78555144     1.58180
O143        O  0.69299855  0.86846558  0.68994349    -0.80910
O144        O  0.74822244  0.63069526  0.83621463    -0.82600
C145        C  0.54423521  0.39982733  0.16980104     0.03290
C146        C  0.51642388  0.40070833  0.19856382    -0.12860
C147        C  0.51888859  0.37599847  0.23020493     0.00790
C148        C  0.55030227  0.35104739  0.23385682    -0.11390
C149        C  0.57909502  0.35020634  0.20608129     0.03280
C150        C  0.57596452  0.37449083  0.17351720    -0.10810
H151        H  0.49267682  0.42072251  0.19609640     0.08870
H152        H  0.55245512  0.33210327  0.25850345     0.06400
H153        H  0.59796368  0.37380664  0.15149192     0.06250
C154        C  0.35048054  0.20554303  0.58053867     0.03290
C155        C  0.35089168  0.23385327  0.55227101    -0.12860
C156        C  0.37486315  0.23034223  0.52020364     0.00790
C157        C  0.39847896  0.19807131  0.51597935    -0.11390
C158        C  0.39883173  0.16935135  0.54383943     0.03280
C159        C  0.37466069  0.17299240  0.57644996    -0.10810
H160        H  0.33221442  0.25863099  0.55517087     0.08870
H161        H  0.41678310  0.19533043  0.49089208     0.06400
H162        H  0.37466547  0.15083395  0.59830568     0.06250
C163        C  0.40314258  0.37441531  0.34717640     0.03290
C164        C  0.40247856  0.34527675  0.37472936    -0.12860
C165        C  0.37416948  0.34530467  0.40312409     0.00790
C166        C  0.34627588  0.37411284  0.40381236    -0.11390
C167        C  0.34655258  0.40280007  0.37582082     0.03280
C168        C  0.37510225  0.40314266  0.34766101    -0.10810
H169        H  0.42403803  0.32278052  0.37424982     0.08870
H170        H  0.32444528  0.37418991  0.42605990     0.06400
H171        H  0.37544904  0.42568192  0.32614772     0.06250
C172        C  0.17072007  0.54398782  0.39999692     0.03290
C173        C  0.17424633  0.57656915  0.37575412    -0.12860
C174        C  0.20666805  0.58056901  0.35133173     0.00790
C175        C  0.23492829  0.55219616  0.35154637    -0.11390
C176        C  0.23162176  0.52023485  0.37568027     0.03280
C177        C  0.19949240  0.51614512  0.39953960    -0.10810
H178        H  0.15207031  0.59843709  0.37584164     0.08870
H179        H  0.25954636  0.55498101  0.33264408     0.06400
H180        H  0.19687455  0.49113691  0.41794573     0.06250
O181        O  0.95958032  0.45451672  0.54044332    -0.88190
C182        C  0.95333099  0.48079760  0.42506936     0.87840
Mg183      Mg  0.95417964  0.49812659  0.58517046     1.58150
O184        O  0.04662952  0.45894027  0.46010593    -0.87920
O185        O  0.99691508  0.40842039  0.52001483    -0.75250
C186        C  0.07833531  0.63435592  0.53736170     0.92890
O187        O  0.90880282  0.52109514  0.50188209    -0.75060
O188        O  0.04648677  0.62985491  0.55482839    -0.82570
Mg189      Mg  0.91480715  0.45510633  0.49732779     1.57960
C190        C  0.13601952  0.53645472  0.42342354     0.92820
O191        O  0.91018205  0.38988116  0.48753495    -0.80830
H192        H  0.08493212  0.42317394  0.48380178    -0.06170
C193        C  0.02098445  0.57461861  0.45335770     0.87750
O194        O  0.02019695  0.50200153  0.59195742    -0.75340
O195        O  0.95928104  0.46030110  0.45339417    -0.88100
O196        O  0.11195452  0.51181218  0.41099887    -0.80910
C197        C  0.03788127  0.42332209  0.36501698     0.92930
C198        C  0.92225595  0.36584045  0.46269192     0.92780
Mg199      Mg  0.08593534  0.54521204  0.50294107     1.57950
O200        O  0.09055833  0.61025938  0.51267942    -0.80840
O201        O  0.09199917  0.47923269  0.49850933    -0.75080
O202        O  0.01337818  0.41060803  0.38910129    -0.80920
O203        O  0.86961009  0.44664446  0.54500812    -0.82630
O204        O  0.98796982  0.58993297  0.61158600    -0.80950
C205        C  0.07487447  0.45239844  0.48060828     0.87220
O206        O  0.04141165  0.54001608  0.54681808    -0.88090
O207        O  0.04112130  0.54609795  0.45967567    -0.88200
O208        O  0.00321904  0.59167704  0.48031647    -0.75250
Mg209      Mg  0.00225397  0.41506239  0.45416501     1.57970
O210        O  0.05505662  0.45523331  0.36983733    -0.82630
H211        H  0.98127460  0.41504308  0.57582534    -0.06350
O212        O  0.95397801  0.54150651  0.54050732    -0.87900
H213        H  0.91568061  0.57716121  0.51665045    -0.06180
H214        H  0.07655327  0.51611069  0.58556797    -0.06350
C215        C  0.92579256  0.54796144  0.51988443     0.87200
C216        C  0.97910614  0.42564680  0.54682538     0.87780
C217        C  0.04743942  0.51956144  0.57515416     0.87830
H218        H  0.01798613  0.58497955  0.42421340    -0.06330
O219        O  0.98060774  0.49843007  0.40838747    -0.75360
Mg220      Mg  0.99843428  0.58526024  0.54626752     1.58000
H221        H  0.92424817  0.48423499  0.41456492    -0.06350
C222        C  0.86490200  0.46370468  0.57703449     0.92820
O223        O  0.94593497  0.54558599  0.63070707    -0.82590
C224        C  0.96329992  0.57743091  0.63562329     0.92880
O225        O  0.95410940  0.37037208  0.44519750    -0.82570
Mg226      Mg  0.04662080  0.50236141  0.41529065     1.58180
O227        O  0.88886390  0.48844012  0.58951593    -0.80910
O228        O  0.13136559  0.55358837  0.45541821    -0.82600
O229        O  0.54080198  0.95964850  0.45456180    -0.88190
C230        C  0.42504180  0.95235606  0.48047754     0.87840
Mg231      Mg  0.58521682  0.95419235  0.49842355     1.58150
O232        O  0.45922152  0.04568584  0.45915273    -0.87920
O233        O  0.51996539  0.99726032  0.40884975    -0.75250
C234        C  0.53691131  0.07754937  0.63455848     0.92890
O235        O  0.50192273  0.90835839  0.52096520    -0.75060
O236        O  0.55426080  0.04568102  0.63004933    -0.82570
Mg237      Mg  0.49776141  0.91469067  0.45498173     1.57960
C238        C  0.42224038  0.13467751  0.53645155     0.92820
O239        O  0.48868524  0.91032035  0.38977615    -0.80830
H240        H  0.48200156  0.08445339  0.42357186    -0.06170
C241        C  0.45258345  0.01994284  0.57472432     0.87750
O242        O  0.59177323  0.02010984  0.50255497    -0.75340
O243        O  0.45345232  0.95867346  0.46019046    -0.88100
O244        O  0.40980726  0.11055052  0.51187227    -0.80910
C245        C  0.36454646  0.03642280  0.42247506     0.92930
C246        C  0.46360273  0.92198052  0.36577233     0.92780
Mg247      Mg  0.50196237  0.08501813  0.54543234     1.57950
O248        O  0.51210399  0.08978069  0.61052721    -0.80840
O249        O  0.49726132  0.09125956  0.47950995    -0.75080
O250        O  0.38856301  0.01164649  0.41015678    -0.80920
O251        O  0.54549571  0.86979702  0.44666884    -0.82630
O252        O  0.61103176  0.98774628  0.59030518    -0.80950
C253        C  0.47930793  0.07416293  0.45269279     0.87220
O254        O  0.54607039  0.04077876  0.54020807    -0.88090
O255        O  0.45877130  0.04009158  0.54621603    -0.88200
O256        O  0.47967251  0.00233560  0.59179678    -0.75250
Mg257      Mg  0.45388772  0.00155624  0.41505618     1.57970
O258        O  0.36920417  0.05362889  0.45443965    -0.82630
H259        H  0.57621727  0.98297693  0.41582939    -0.06350
O260        O  0.54025305  0.95361654  0.54156648    -0.87900
H261        H  0.51653198  0.91519670  0.57711255    -0.06180
H262        H  0.58480048  0.07627559  0.51689957    -0.06350
C263        C  0.51977983  0.92535214  0.54792576     0.87200
C264        C  0.54705159  0.97979040  0.42606349     0.87780
C265        C  0.57457391  0.04711391  0.52007751     0.87830
H266        H  0.42345320  0.01684457  0.58506673    -0.06330
O267        O  0.40792870  0.97936099  0.49810881    -0.75360
Mg268      Mg  0.54571588  0.99784946  0.58543305     1.58000
H269        H  0.41483342  0.92319328  0.48371844    -0.06350
C270        C  0.57744272  0.86515078  0.46391738     0.92820
O271        O  0.63046354  0.94585451  0.54600041    -0.82590
C272        C  0.63516141  0.96313410  0.57790584     0.92880
O273        O  0.44560669  0.95351623  0.37029526    -0.82570
Mg274      Mg  0.41433793  0.04532894  0.50223498     1.58180
O275        O  0.58979826  0.88908377  0.48870341    -0.80910
O276        O  0.45422472  0.13011214  0.55371050    -0.82600
C277        C  0.59804882  0.62613171  0.65407334     0.03290
C278        C  0.62607363  0.59745853  0.65348125    -0.12860
C279        C  0.65415548  0.59766031  0.62490839     0.00790
C280        C  0.65394138  0.62594906  0.59660208    -0.11390
C281        C  0.62612499  0.65485187  0.59733611     0.03280
C282        C  0.59801429  0.65481832  0.62603441    -0.10810
H283        H  0.62596367  0.57497706  0.67504761     0.08870
H284        H  0.67501856  0.62497874  0.57368342     0.06400
H285        H  0.57636559  0.67723987  0.62680614     0.06250
C286        C  0.41991814  0.64949512  0.79356353     0.03290
C287        C  0.42364771  0.62483481  0.82579065    -0.12860
C288        C  0.45613766  0.60043236  0.82930891     0.00790
C289        C  0.48405590  0.60082249  0.80061322    -0.11390
C290        C  0.48028945  0.62504588  0.76871159     0.03280
C291        C  0.44851028  0.64950514  0.76557923    -0.10810
H292        H  0.40165351  0.62470150  0.84783004     0.08870
H293        H  0.50890395  0.58214791  0.80318503     0.06400
H294        H  0.44598349  0.66883846  0.74129474     0.06250
C295        C  0.60066838  0.83042302  0.45649919     0.03290
C296        C  0.62485703  0.82657104  0.42389540    -0.12860
C297        C  0.64864431  0.79370275  0.41975755     0.00790
C298        C  0.64771073  0.76529065  0.44792558    -0.11390
C299        C  0.62396991  0.76935699  0.48002556     0.03280
C300        C  0.60078561  0.80178599  0.48439002    -0.10810
H301        H  0.62514360  0.84877565  0.40208893     0.08870
H302        H  0.66534753  0.73976388  0.44479877     0.06400
H303        H  0.58316229  0.80497024  0.50991227     0.06250
C304        C  0.82997525  0.45631246  0.60013855     0.03290
C305        C  0.82539438  0.42316926  0.62351175    -0.12860
C306        C  0.79210337  0.41894053  0.64678051     0.00790
C307        C  0.76455631  0.44801213  0.64669948    -0.11390
C308        C  0.76887136  0.48038572  0.62341959     0.03280
C309        C  0.80160439  0.48455811  0.60049528    -0.10810
H310        H  0.84711508  0.40085757  0.62319570     0.08870
H311        H  0.73952715  0.44540183  0.66507860     0.06400
H312        H  0.80492723  0.50984476  0.58259051     0.06250
O313        O  0.45404224  0.54048394  0.95861744    -0.88190
C314        C  0.48088503  0.42507106  0.95202876     0.87840
Mg315      Mg  0.49776318  0.58502923  0.95345329     1.58150
O316        O  0.45968338  0.45934798  0.04549464    -0.87920
O317        O  0.40880005  0.51967774  0.99681013    -0.75250
C318        C  0.63460511  0.53777073  0.07719873     0.92890
O319        O  0.52092101  0.50222332  0.90758718    -0.75060
O320        O  0.62998276  0.55468224  0.04510975    -0.82570
Mg321      Mg  0.45494677  0.49732698  0.91377173     1.57960
C322        C  0.53725938  0.42290018  0.13481431     0.92820
O323        O  0.38978913  0.48693433  0.90909219    -0.80830
H324        H  0.42382282  0.48164798  0.08442450    -0.06170
C325        C  0.57522468  0.45300152  0.01951026     0.87750
O326        O  0.50175861  0.59139417  0.01948878    -0.75340
O327        O  0.46044289  0.45340149  0.95818558    -0.88100
O328        O  0.51325133  0.41000683  0.11031287    -0.80910
C329        C  0.42342458  0.36463720  0.03619053     0.92930
C330        C  0.36562686  0.46252529  0.92177010     0.92780
Mg331      Mg  0.54558557  0.50236773  0.08490082     1.57950
O332        O  0.61061422  0.51315183  0.08977679    -0.80840
O333        O  0.47969737  0.49726844  0.09126291    -0.75080
O334        O  0.41099332  0.38865500  0.01149272    -0.80920
O335        O  0.44643272  0.54498610  0.86853490    -0.82630
O336        O  0.58888009  0.61125735  0.98825651    -0.80950
C337        C  0.45301034  0.47921608  0.07408243     0.87220
O338        O  0.53985455  0.54611237  0.04045429    -0.88090
O339        O  0.54684529  0.45902170  0.03995784    -0.88200
O340        O  0.59191397  0.48013486  0.00168647    -0.75250
Mg341      Mg  0.41545864  0.45384602  0.00140947     1.57970
O342        O  0.45537491  0.36933892  0.05348319    -0.82630
H343        H  0.41498408  0.57564269  0.98160229    -0.06350
O344        O  0.54103604  0.54034043  0.95320634    -0.87900
H345        H  0.57687155  0.51757199  0.91452589    -0.06180
H346        H  0.51592089  0.58464124  0.07576306    -0.06350
C347        C  0.54766384  0.52024189  0.92475423     0.87200
C348        C  0.42555697  0.54664127  0.97881752     0.87780
C349        C  0.51935364  0.57440382  0.04662211     0.87830
H350        H  0.58574389  0.42394798  0.01624005    -0.06330
O351        O  0.49863184  0.40818640  0.97912742    -0.75360
Mg352      Mg  0.58499558  0.54601369  0.99747473     1.58000
H353        H  0.48414262  0.41471551  0.92291931    -0.06350
C354        C  0.46356617  0.57700466  0.86399732     0.92820
O355        O  0.54535899  0.63038328  0.94533516    -0.82590
C356        C  0.57688037  0.63524435  0.96334374     0.92880
O357        O  0.37026226  0.44548334  0.95381538    -0.82570
Mg358      Mg  0.50301345  0.41457918  0.04512764     1.58180
O359        O  0.48810130  0.58949702  0.88817978    -0.80910
O360        O  0.55411389  0.45507472  0.13040393    -0.82600
O361        O  0.54022904  0.45375093  0.45929200    -0.88190
C362        C  0.54760504  0.47945595  0.57492432     0.87840
Mg363      Mg  0.54553201  0.49781482  0.41505107     1.58150
O364        O  0.45402962  0.45857098  0.54033941    -0.87920
O365        O  0.50244031  0.40805368  0.47969954    -0.75250
C366        C  0.42228071  0.63478913  0.46387280     0.92890
O367        O  0.59150237  0.52005089  0.49808023    -0.75060
O368        O  0.45410237  0.63012769  0.44638237    -0.82570
Mg369      Mg  0.58530524  0.45404677  0.50238640     1.57960
C370        C  0.36567934  0.53643454  0.57805867     0.92820
O371        O  0.59007417  0.38882747  0.51228031    -0.80830
H372        H  0.41521239  0.42332629  0.51671230    -0.06170
C373        C  0.48028366  0.57426083  0.54765358     0.87750
O374        O  0.47948418  0.50214265  0.40868442    -0.75340
O375        O  0.54121806  0.45919912  0.54651650    -0.88100
O376        O  0.38944002  0.51121978  0.58992562    -0.80910
C377        C  0.46319864  0.42167192  0.63482590     0.92930
C378        C  0.57762686  0.36459659  0.53673738     0.92780
Mg379      Mg  0.41488912  0.54556044  0.49836547     1.57950
O380        O  0.41016280  0.61082381  0.48874160    -0.80840
O381        O  0.40848066  0.47956480  0.50252857    -0.75080
O382        O  0.48769937  0.40906804  0.61072012    -0.80920
O383        O  0.63017681  0.44564948  0.45460743    -0.82630
O384        O  0.51187292  0.58993163  0.38933419    -0.80950
C385        C  0.42554832  0.45243728  0.52004376     0.87220
O386        O  0.45883950  0.54022925  0.45406684    -0.88090
O387        O  0.46007504  0.54580983  0.54130236    -0.88200
O388        O  0.49779369  0.59147234  0.52064054    -0.75250
Mg389      Mg  0.49797837  0.41423182  0.54564968     1.57970
O390        O  0.44635710  0.45384700  0.63035125    -0.82630
H391        H  0.51708819  0.41512247  0.42362956    -0.06350
O392        O  0.54614219  0.54097530  0.45996890    -0.87900
H393        H  0.58480243  0.57625824  0.48377885    -0.06180
H394        H  0.42327744  0.51669324  0.41547241    -0.06350
C395        C  0.57451127  0.54713774  0.48041825     0.87200
C396        C  0.52011120  0.42528204  0.45281902     0.87780
C397        C  0.45248187  0.51988904  0.42570848     0.87830
H398        H  0.48352256  0.58445540  0.57683713    -0.06330
O399        O  0.52065245  0.49728416  0.59192078    -0.75360
Mg400      Mg  0.50199785  0.58517620  0.45462022     1.58000
H401        H  0.57680894  0.48254811  0.58519389    -0.06350
C402        C  0.63475092  0.46295384  0.42272244     0.92820
O403        O  0.55375640  0.54555593  0.36988521    -0.82590
C404        C  0.53651639  0.57751238  0.36524631     0.92880
O405        O  0.54563808  0.36911311  0.55394283    -0.82570
Mg406      Mg  0.45468071  0.50160694  0.58540571     1.58180
O407        O  0.61081064  0.48786905  0.41052662    -0.80910
O408        O  0.37032595  0.55403543  0.54635407    -0.82600
O409        O  0.06344460  0.96422706  0.01964883    -0.88190
C410        C  0.01047170  0.97441368  0.91411247     0.87840
Mg411      Mg  0.03446749  0.94095388  0.06970280     1.58150
O412        O  0.01994545  0.06229855  0.96530889    -0.87920
O413        O  0.09234674  0.01697943  0.00204846    -0.75250
C414        C  0.86676191  0.03181455  0.08230150     0.92890
O415        O  0.99900726  0.90804925  0.98308866    -0.75060
O416        O  0.88083633  0.99811770  0.08574689    -0.82570
Mg417      Mg  0.05903465  0.93026381  0.96701789     1.57960
C418        C  0.91929844  0.13318538  0.96829310     0.92820
O419        O  0.11897489  0.94150345  0.94071530    -0.80830
H420        H  0.05235461  0.10258064  0.99036276    -0.06170
C421        C  0.91395950  0.00992498  0.97636240     0.87750
O422        O  0.01865504  0.00086251  0.09235497    -0.75340
O423        O  0.03586751  0.98040519  0.93810575    -0.88100
O424        O  0.94046107  0.11766489  0.94272562    -0.80910
C425        C  0.03274913  0.08010853  0.86617858     0.92930
C426        C  0.13459681  0.96699688  0.91959980     0.92780
Mg427      Mg  0.94247210  0.06872784  0.03452731     1.57950
O428        O  0.88238416  0.05728697  0.06109363    -0.80840
O429        O  0.00244630  0.09103342  0.01824260    -0.75080
O430        O  0.05839860  0.05919163  0.88195650    -0.80920
O431        O  0.08496318  0.87923299  0.99876785    -0.82630
O432        O  0.94325776  0.93909830  0.11919804    -0.80950
C433        C  0.02593018  0.08619911  0.99079971     0.87220
O434        O  0.96574229  0.01869771  0.06376478    -0.88090
O435        O  0.93855969  0.03471416  0.98209930    -0.88200
O436        O  0.90878723  0.98256278  0.99980735    -0.75250
Mg437      Mg  0.06990988  0.03298052  0.94208296     1.57970
O438        O  0.99897954  0.08344597  0.88020832    -0.82630
H439        H  0.10389119  0.98914575  0.05195877    -0.06350
O440        O  0.98162302  0.93704803  0.03585385    -0.87900
H441        H  0.94903505  0.89679746  0.01097365    -0.06180
H442        H  0.99104256  0.05085579  0.10407634    -0.06350
C443        C  0.97552092  0.91308025  0.01047273     0.87200
C444        C  0.08745957  0.98961729  0.02557356     0.87780
C445        C  0.99132602  0.02450492  0.08762558     0.87830
H446        H  0.89716394  0.01109995  0.95033142    -0.06330
O447        O  0.98304724  0.99787915  0.90920946    -0.75360
Mg448      Mg  0.93163923  0.96609179  0.05947566     1.58000
H449        H  0.01098404  0.94802679  0.89773824    -0.06350
C450        C  0.08167005  0.86529705  0.03250698     0.92820
O451        O  0.00261567  0.91475610  0.12048589    -0.82590
C452        C  0.96888298  0.91785096  0.13456665     0.92880
O453        O  0.12064008  0.00073513  0.91623643    -0.82570
Mg454      Mg  0.96713155  0.05778532  0.93155142     1.58180
O455        O  0.06069557  0.88103575  0.05807845    -0.80910
O456        O  0.91625282  0.11924682  0.00208549    -0.82600
C457        C  0.82981355  0.95623770  0.40017743     0.03290
C458        C  0.82611891  0.92396200  0.37557449    -0.12860
C459        C  0.79358402  0.92039102  0.35121779     0.00790
C460        C  0.76585762  0.94927434  0.35129651    -0.11390
C461        C  0.76968672  0.98122587  0.37546025     0.03280
C462        C  0.80118368  0.98410574  0.40027037    -0.10810
H463        H  0.84816072  0.90195979  0.37543736     0.08870
H464        H  0.74120033  0.94685548  0.33233826     0.06400
H465        H  0.80366736  0.00830673  0.41971414     0.06250
C466        C  0.62538018  0.15396327  0.40311897     0.03290
C467        C  0.65410896  0.12596113  0.40272261    -0.12860
C468        C  0.65414134  0.09791297  0.37402987     0.00790
C469        C  0.62615074  0.09846379  0.34532737    -0.11390
C470        C  0.59742476  0.12630318  0.34616365     0.03280
C471        C  0.59673386  0.15390970  0.37510075    -0.10810
H472        H  0.67592307  0.12561083  0.42501765     0.08870
H473        H  0.62654764  0.07720771  0.32254149     0.06400
H474        H  0.57445086  0.17572784  0.37533981     0.06250
C475        C  0.45949978  0.10431281  0.16804676     0.03290
C476        C  0.48781702  0.10521710  0.19638225    -0.12860
C477        C  0.48275052  0.12687677  0.22965472     0.00790
C478        C  0.44905173  0.14777571  0.23538758    -0.11390
C479        C  0.42007370  0.14790393  0.20772380     0.03280
C480        C  0.42520378  0.12595222  0.17359259    -0.10810
H481        H  0.51385771  0.08843373  0.19279704     0.08870
H482        H  0.44556422  0.16440094  0.26153489     0.06400
H483        H  0.40292177  0.12565440  0.15182422     0.06250
C484        C  0.60066862  0.32957162  0.54362803     0.03290
C485        C  0.62414046  0.32446072  0.57670498    -0.12860
C486        C  0.64698118  0.29081024  0.58072732     0.00790
C487        C  0.64624465  0.26336024  0.55157914    -0.11390
C488        C  0.62351991  0.26884439  0.51909001     0.03280
C489        C  0.60085958  0.30159685  0.51502011    -0.10810
H490        H  0.62417245  0.34602114  0.59915532     0.08870
H491        H  0.66325582  0.23735093  0.55421077     0.06400
H492        H  0.58351326  0.30536698  0.48936116     0.06250
C493        C  0.20602843  0.07912566  0.64992544     0.03290
C494        C  0.23408331  0.05053581  0.64924296    -0.12860
C495        C  0.23066774  0.01907397  0.62434402     0.00790
C496        C  0.19926144  0.01649292  0.59935804    -0.11390
C497        C  0.17022136  0.04391865  0.60019368     0.03280
C498        C  0.17350105  0.07564561  0.62555202    -0.10810
H499        H  0.25869917  0.05285494  0.66826059     0.08870
H500        H  0.19709725  0.99280837  0.57925798     0.06400
H501        H  0.15121494  0.09739470  0.62613342     0.06250
C502        C  0.37480431  0.84622376  0.59506498     0.03290
C503        C  0.34693204  0.87500422  0.59486417    -0.12860
C504        C  0.34693131  0.90282286  0.62382848     0.00790
C505        C  0.37462447  0.90158694  0.65283908    -0.11390
C506        C  0.40250034  0.87289303  0.65242225     0.03280
C507        C  0.40270099  0.84506633  0.62374140    -0.10810
H508        H  0.32542619  0.87574480  0.57228240     0.08870
H509        H  0.37448864  0.92274290  0.67571626     0.06400
H510        H  0.42448947  0.82275299  0.62366161     0.06250
C511        C  0.58005501  0.85322987  0.79008880     0.03290
C512        C  0.55195178  0.85429201  0.76153019    -0.12860
C513        C  0.51804772  0.87471668  0.76717768     0.00790
C514        C  0.51163090  0.89497069  0.80100867    -0.11390
C515        C  0.53956246  0.89581014  0.82971565     0.03280
C516        C  0.57408877  0.87449024  0.82448322    -0.10810
H517        H  0.55607039  0.83856627  0.73491997     0.08870
H518        H  0.48489898  0.91065369  0.80464534     0.06400
H519        H  0.59589343  0.87446538  0.84673372     0.06250
C520        C  0.35186661  0.70700665  0.41924333     0.03290
C521        C  0.37496023  0.67366245  0.42378879    -0.12860
C522        C  0.39895535  0.66956487  0.45658306     0.00790
C523        C  0.39892332  0.69826904  0.48447393    -0.11390
C524        C  0.37668601  0.73124805  0.47943745     0.03280
C525        C  0.35359395  0.73579287  0.44697099    -0.10810
H526        H  0.37435616  0.65132738  0.40211458     0.08870
H527        H  0.41645297  0.69512419  0.51009150     0.06400
H528        H  0.33650916  0.76166410  0.44358300     0.06250
O529        O  0.53454726  0.01796553  0.93592202    -0.88190
C530        C  0.52407578  0.91329532  0.98958749     0.87840
Mg531      Mg  0.55889489  0.06742068  0.96492518     1.58150
O532        O  0.43659619  0.96504773  0.98032065    -0.87920
O533        O  0.48146889  0.00083737  0.90725497    -0.75250
C534        C  0.46822012  0.08238466  0.13249100     0.92890
O535        O  0.59146146  0.98099934  0.99981868    -0.75060
O536        O  0.50206787  0.08499742  0.11842953    -0.82570
Mg537      Mg  0.56821719  0.96511336  0.94011659     1.57960
C538        C  0.36551595  0.96875135  0.08085678     0.92820
O539        O  0.55619454  0.93857436  0.88061474    -0.80830
H540        H  0.39593907  0.98965339  0.94810582    -0.06170
C541        C  0.48880677  0.97572975  0.08639536     0.87750
O542        O  0.49942896  0.09124119  0.98119688    -0.75340
O543        O  0.51804014  0.93691018  0.96390413    -0.88100
O544        O  0.38119627  0.94324029  0.05977106    -0.80910
C545        C  0.41763435  0.86625283  0.96804675     0.92930
C546        C  0.53052356  0.91746553  0.86524278     0.92780
Mg547      Mg  0.43043830  0.03443130  0.05741047     1.57950
O548        O  0.44232912  0.06148302  0.11708707    -0.80840
O549        O  0.40775457  0.01792353  0.99769381    -0.75080
O550        O  0.43860608  0.88161491  0.94226749    -0.80920
O551        O  0.61908042  0.99634221  0.91328964    -0.82630
O552        O  0.56262418  0.11641087  0.05603736    -0.80950
C553        C  0.41254312  0.99038425  0.97434454     0.87220
O554        O  0.48103018  0.06281747  0.03391355    -0.88090
O555        O  0.46413527  0.98174279  0.06171850    -0.88200
O556        O  0.51664013  0.99866128  0.09133253    -0.75250
Mg557      Mg  0.46520886  0.94118481  0.93021144     1.57970
O558        O  0.41461825  0.88046320  0.00171408    -0.82630
H559        H  0.50974743  0.05044731  0.89553260    -0.06350
O560        O  0.56220938  0.03338941  0.01761852    -0.87900
H561        H  0.60306370  0.00891370  0.04967257    -0.06180
H562        H  0.44960510  0.10385019  0.00882181    -0.06350
C563        C  0.58643531  0.00822467  0.02345566     0.87200
C564        C  0.50909114  0.02411687  0.91200828     0.87780
C565        C  0.47565472  0.08686281  0.00845662     0.87830
H566        H  0.48721905  0.94983445  0.10337919    -0.06330
O567        O  0.50070868  0.90884726  0.01716607    -0.75360
Mg568      Mg  0.53384567  0.05769918  0.06780445     1.58000
H569        H  0.55049571  0.89692597  0.98917179    -0.06350
C570        C  0.63347484  0.02989494  0.91650833     0.92820
O571        O  0.58689991  0.11685532  0.99675601    -0.82590
C572        C  0.58454824  0.13089128  0.03049143     0.92880
O573        O  0.49678324  0.91443409  0.87935586    -0.82570
Mg574      Mg  0.44086544  0.93151338  0.03317268     1.58180
O575        O  0.61840805  0.05538911  0.93800846    -0.80910
O576        O  0.37928250  0.00263459  0.08392618    -0.82600
C577        C  0.64664566  0.20604330  0.08159197     0.03290
C578        C  0.62678942  0.17127545  0.07475949    -0.12860
C579        C  0.60742339  0.16569948  0.03947040     0.00790
C580        C  0.61103953  0.19350545  0.01092152    -0.11390
C581        C  0.62577341  0.23012917  0.01913063     0.03280
C582        C  0.64298088  0.23606858  0.05531223    -0.10810
H583        H  0.62684391  0.14880754  0.09629702     0.08870
H584        H  0.60161316  0.18610530  0.98238596     0.06400
H585        H  0.65440895  0.26369649  0.06357262     0.06250
C586        C  0.59272770  0.38159437  0.84857133     0.03290
C587        C  0.59139557  0.35557279  0.87901392    -0.12860
C588        C  0.62397852  0.34982686  0.90246566     0.00790
C589        C  0.65691093  0.37200106  0.89513372    -0.11390
C590        C  0.65558992  0.40162692  0.86836300     0.03280
C591        C  0.62404006  0.40593279  0.84438790    -0.10810
H592        H  0.56516616  0.33946845  0.88316780     0.08870
H593        H  0.68353115  0.36742236  0.91041333     0.06400
H594        H  0.62395746  0.42802503  0.82239914     0.06250
C595        C  0.45562034  0.39851994  0.66960355     0.03290
C596        C  0.48255850  0.39984573  0.69917093    -0.12860
C597        C  0.47758062  0.37759368  0.73219899     0.00790
C598        C  0.44591099  0.35324726  0.73580406    -0.11390
C599        C  0.41882756  0.35069652  0.70642734     0.03280
C600        C  0.42349746  0.37359507  0.67301141    -0.10810
H601        H  0.50748396  0.41841789  0.69658172     0.08870
H602        H  0.44251091  0.33591185  0.76147837     0.06400
H603        H  0.40232765  0.37228250  0.65018989     0.06250
C604        C  0.83090645  0.54100697  0.89689458     0.03290
C605        C  0.80343858  0.51197841  0.89413373    -0.12860
C606        C  0.77042127  0.51721355  0.87216792     0.00790
C607        C  0.76403769  0.55149780  0.85263326    -0.11390
C608        C  0.79114676  0.58087857  0.85390936     0.03280
C609        C  0.82497973  0.57580847  0.87633447    -0.10810
H610        H  0.80742771  0.48523749  0.90964264     0.08870
H611        H  0.73794973  0.55502707  0.83585362     0.06400
H612        H  0.84629923  0.59845588  0.87767780     0.06250
C613        C  0.35015089  0.79319819  0.92026948     0.03290
C614        C  0.37320630  0.82645386  0.92535158    -0.12860
C615        C  0.39562645  0.83091685  0.95915710     0.00790
C616        C  0.39471600  0.80218132  0.98697373    -0.11390
C617        C  0.37211325  0.76947722  0.98186191     0.03280
C618        C  0.35025731  0.76481955  0.94849288    -0.10810
H619        H  0.37328126  0.84870146  0.90358873     0.08870
H620        H  0.41207121  0.80511381  0.01272072     0.06400
H621        H  0.33292739  0.73918332  0.94469008     0.06250
C622        C  0.54395392  0.60081811  0.33047104     0.03290
C623        C  0.57650201  0.62515702  0.32681792    -0.12860
C624        C  0.58070347  0.64894776  0.29397508     0.00790
C625        C  0.55270401  0.64792599  0.26540950    -0.11390
C626        C  0.52073622  0.62389500  0.26896584     0.03280
C627        C  0.51627508  0.60072342  0.30149675    -0.10810
H628        H  0.59822603  0.62554382  0.34914774     0.08870
H629        H  0.55568600  0.66624100  0.24038154     0.06400
H630        H  0.49115855  0.58244005  0.30421826     0.06250
C631        C  0.37586627  0.65309025  0.09668669     0.03290
C632        C  0.40436693  0.65348725  0.12493692    -0.12860
C633        C  0.40435027  0.62529379  0.15345620     0.00790
C634        C  0.37608051  0.59688731  0.15371231    -0.11390
C635        C  0.34776673  0.59690235  0.12543234     0.03280
C636        C  0.34750863  0.62482732  0.09685695    -0.10810
H637        H  0.42630504  0.67563324  0.12479620     0.08870
H638        H  0.37617103  0.57481378  0.17570807     0.06400
H639        H  0.32519855  0.62472336  0.07504441     0.06250
C640        C  0.20909440  0.42034220  0.14712109     0.03290
C641        C  0.23717097  0.44892185  0.14708798    -0.12860
C642        C  0.23147109  0.48282911  0.12673587     0.00790
C643        C  0.19812979  0.48863098  0.10540393    -0.11390
C644        C  0.16987970  0.46027857  0.10367324     0.03280
C645        C  0.17513298  0.42582562  0.12499531    -0.10810
H646        H  0.26353150  0.44504352  0.16335159     0.08870
H647        H  0.19455488  0.51520797  0.08950834     0.06400
H648        H  0.15324397  0.40369591  0.12434732     0.06250
O649        O  0.03579074  0.48173215  0.06254396    -0.88190
C650        C  0.02524181  0.58749124  0.00962271     0.87840
Mg651      Mg  0.05935853  0.43166598  0.03376086     1.58150
O652        O  0.93770516  0.53598156  0.01914446    -0.87920
O653        O  0.98302578  0.49931041  0.09148399    -0.75250
C654        C  0.96758410  0.41865958  0.86681218     0.92890
O655        O  0.09204015  0.51838383  0.99824865    -0.75060
O656        O  0.00142436  0.41549429  0.88072624    -0.82570
Mg657      Mg  0.06960262  0.53447883  0.05815622     1.57960
C658        C  0.86634577  0.53237383  0.91897056     0.92820
O659        O  0.05842133  0.56090672  0.11796176    -0.80830
H660        H  0.89720912  0.51142735  0.05153551    -0.06170
C661        C  0.99030274  0.52534635  0.91341476     0.87750
O662        O  0.99949933  0.40877507  0.01787801    -0.75340
O663        O  0.01941255  0.56339436  0.03492202    -0.88100
O664        O  0.88167697  0.55815993  0.94001222    -0.80910
C665        C  0.91897101  0.63465359  0.03239881     0.92930
C666        C  0.03295971  0.58197553  0.13372478     0.92780
Mg667      Mg  0.93123587  0.46680929  0.94216063     1.57950
O668        O  0.94211661  0.43990572  0.88235079    -0.80840
O669        O  0.90882152  0.48311945  0.00194278    -0.75080
O670        O  0.94028639  0.61901345  0.05778114    -0.80920
O671        O  0.12039127  0.50277749  0.08440642    -0.82630
O672        O  0.06079703  0.38227511  0.94277953    -0.80950
C673        C  0.91367353  0.51068342  0.02522733     0.87220
O674        O  0.98147728  0.43792121  0.96544113    -0.88090
O675        O  0.96503115  0.51957629  0.93757417    -0.88200
O676        O  0.01760636  0.50172674  0.90846168    -0.75250
Mg677      Mg  0.96689822  0.55921000  0.06912375     1.57970
O678        O  0.91552020  0.62077010  0.99860269    -0.82630
H679        H  0.01086083  0.44936247  0.10287857    -0.06350
O680        O  0.06328150  0.46547341  0.98095917    -0.87900
H681        H  0.10350270  0.49039185  0.94840462    -0.06180
H682        H  0.94942248  0.39722619  0.99021677    -0.06350
C683        C  0.08717258  0.49091403  0.97484127     0.87200
C684        C  0.01039424  0.47577513  0.08652807     0.87780
C685        C  0.97575257  0.41375682  0.99068755     0.87830
H686        H  0.98975499  0.55162948  0.89686394    -0.06330
O687        O  0.00159084  0.59245771  0.98234333    -0.75360
Mg688      Mg  0.03390609  0.44194973  0.93116711     1.58000
H689        H  0.05162192  0.60394563  0.01009997    -0.06350
C690        C  0.13452039  0.46908460  0.08154529     0.92820
O691        O  0.08574990  0.38092662  0.00188237    -0.82590
C692        C  0.08228417  0.36688098  0.96818265     0.92880
O693        O  0.99909359  0.58525803  0.11993919    -0.82570
Mg694      Mg  0.94165293  0.56982693  0.96646783     1.58180
O695        O  0.11918646  0.44335963  0.06044390    -0.80910
O696        O  0.88056076  0.49870674  0.91605549    -0.82600
C697        C  0.90163526  0.12595357  0.65381392     0.03290
C698        C  0.87499076  0.09611365  0.65128950    -0.12860
C699        C  0.84752460  0.09647459  0.62211180     0.00790
C700        C  0.84750899  0.12558811  0.59463698    -0.11390
C701        C  0.87445172  0.15529471  0.59686942     0.03280
C702        C  0.90094796  0.15582372  0.62707168    -0.10810
H703        H  0.87543049  0.07285900  0.67201010     0.08870
H704        H  0.82670708  0.12481590  0.57141542     0.06400
H705        H  0.92102152  0.17945504  0.62997928     0.06250
C706        C  0.04195031  0.10197281  0.83074446     0.03290
C707        C  0.01451337  0.10250269  0.80151353    -0.12860
C708        C  0.01875967  0.12654127  0.76954465     0.00790
C709        C  0.05091639  0.15053488  0.76676799    -0.11390
C710        C  0.07969555  0.14947252  0.79456667     0.03280
C711        C  0.07536129  0.12505310  0.82690790    -0.10810
H712        H  0.98954786  0.08398761  0.80383131     0.08870
H713        H  0.05374723  0.17028895  0.74289194     0.06400
H714        H  0.09724705  0.12464813  0.84907985     0.06250
C715        C  0.67038508  0.95623017  0.60074896     0.03290
C716        C  0.67551753  0.92338053  0.62443765    -0.12860
C717        C  0.70959656  0.91914287  0.64662615     0.00790
C718        C  0.73750659  0.94782079  0.64492878    -0.11390
C719        C  0.73238685  0.98004613  0.62163479     0.03280
C720        C  0.69883709  0.98436418  0.59997060    -0.10810
H721        H  0.65363553  0.90124445  0.62511204     0.08870
H722        H  0.76338602  0.94517615  0.66214299     0.06400
H723        H  0.69504731  0.00959708  0.58206778     0.06250
C724        C  0.85115033  0.29411731  0.41854111     0.03290
C725        C  0.87524671  0.32679181  0.42244462    -0.12860
C726        C  0.89871315  0.33117592  0.45553481     0.00790
C727        C  0.89732464  0.30332159  0.48422810    -0.11390
C728        C  0.87380091  0.27101816  0.48014070     0.03280
C729        C  0.85121726  0.26628225  0.44726339    -0.10810
H730        H  0.87565910  0.34849219  0.40013866     0.08870
H731        H  0.91446820  0.30689796  0.51004843     0.06400
H732        H  0.83387193  0.24061419  0.44383996     0.06250
C733        C  0.95616799  0.10010715  0.32964933     0.03290
C734        C  0.92338637  0.12410658  0.32568651    -0.12860
C735        C  0.91998468  0.14907483  0.29360864     0.00790
C736        C  0.94929367  0.14986613  0.26637821    -0.11390
C737        C  0.98158586  0.12613550  0.27024738     0.03280
C738        C  0.98462562  0.10114307  0.30156206    -0.10810
H739        H  0.90096513  0.12347467  0.34728040     0.08870
H740        H  0.94685380  0.16903480  0.24192702     0.06400
H741        H  0.00921641  0.08217142  0.30412891     0.06250
C742        C  0.14895320  0.29357040  0.91952593     0.03290
C743        C  0.12662912  0.32725910  0.92517007    -0.12860
C744        C  0.10401994  0.33146092  0.95889396     0.00790
C745        C  0.10420479  0.30214668  0.98614663    -0.11390
C746        C  0.12522046  0.26859492  0.97991887     0.03280
C747        C  0.14746057  0.26434983  0.94680730    -0.10810
H748        H  0.12723196  0.34999115  0.90392354     0.08870
H749        H  0.08797990  0.30550519  0.01254623     0.06400
H750        H  0.16370031  0.23811796  0.94227673     0.06250
C751        C  0.09695473  0.12566600  0.15345735     0.03290
C752        C  0.09827563  0.15420484  0.12534309    -0.12860
C753        C  0.12497298  0.15175742  0.09538004     0.00790
C754        C  0.15046320  0.12078456  0.09407121    -0.11390
C755        C  0.15015762  0.09340095  0.12323630     0.03280
C756        C  0.12324737  0.09544063  0.15275078    -0.10810
H757        H  0.07855154  0.17827896  0.12693259     0.08870
H758        H  0.17066974  0.11782650  0.07056832     0.06400
H759        H  0.12284752  0.07369291  0.17506543     0.06250
C760        C  0.33030321  0.95908374  0.10284728     0.03290
C761        C  0.30026758  0.98557331  0.10271534    -0.12860
C762        C  0.26714620  0.97912874  0.12446179     0.00790
C763        C  0.26389928  0.94635149  0.14727809    -0.11390
C764        C  0.29355332  0.91952169  0.14853246     0.03280
C765        C  0.32694117  0.92553866  0.12584892    -0.10810
H766        H  0.30252401  0.01133857  0.08532535     0.08870
H767        H  0.23837996  0.94196320  0.16464356     0.06400
H768        H  0.35007334  0.90469210  0.12643641     0.06250
O769        O  0.20361397  0.20865180  0.70931251    -0.88190
C770        C  0.22984189  0.20252014  0.82497098     0.87840
Mg771      Mg  0.24778490  0.20313108  0.66521200     1.58150
O772        O  0.20866009  0.29575330  0.78988241    -0.87920
O773        O  0.15822410  0.24698788  0.72960506    -0.75250
C774        C  0.38433421  0.32694213  0.71344814     0.92890
O775        O  0.27042178  0.15780936  0.74835460    -0.75060
O776        O  0.37969456  0.29539568  0.69554084    -0.82570
Mg777      Mg  0.20435174  0.16397509  0.75279940     1.57960
C778        C  0.28633422  0.38439791  0.82703432     0.92820
O779        O  0.13916509  0.15921501  0.76333401    -0.80830
H780        H  0.17309236  0.33434354  0.76634950    -0.06170
C781        C  0.32424708  0.26977086  0.79731728     0.87750
O782        O  0.25205768  0.26903056  0.65837716    -0.75340
O783        O  0.20961886  0.20858168  0.79644044    -0.88100
O784        O  0.26106762  0.36074671  0.83894760    -0.80910
C785        C  0.17206527  0.28667607  0.88457125     0.92930
C786        C  0.11482438  0.17222934  0.78742047     0.92780
Mg787      Mg  0.29531029  0.33449813  0.74776547     1.57950
O788        O  0.36054302  0.33853222  0.73872878    -0.80840
O789        O  0.22930277  0.34115880  0.75186256    -0.75080
O790        O  0.16000666  0.26170704  0.86066470    -0.80920
O791        O  0.19601733  0.11847753  0.70531454    -0.82630
O792        O  0.33920992  0.23752228  0.63924042    -0.80950
C793        C  0.20229386  0.32411151  0.76955519     0.87220
O794        O  0.28983031  0.29009030  0.70389099    -0.88090
O795        O  0.29565249  0.28977224  0.79087793    -0.88200
O796        O  0.34150952  0.25208273  0.77042891    -0.75250
Mg797      Mg  0.16455574  0.25176425  0.79551259     1.57970
O798        O  0.20376882  0.30432211  0.87981814    -0.82630
H799        H  0.16499174  0.23191372  0.67359993    -0.06350
O800        O  0.29102010  0.20308536  0.71014732    -0.87900
H801        H  0.32663195  0.16468700  0.73389273    -0.06180
H802        H  0.26694495  0.32508479  0.66455413    -0.06350
C803        C  0.29741354  0.17484158  0.73061358     0.87200
C804        C  0.17523208  0.22895506  0.70280160     0.87780
C805        C  0.26975379  0.29613801  0.67527297     0.87830
H806        H  0.33453589  0.26695511  0.82646072    -0.06330
O807        O  0.24741072  0.22967643  0.84191831    -0.75360
Mg808      Mg  0.33501056  0.24736868  0.70443644     1.58000
H809        H  0.23306595  0.17345102  0.83544780    -0.06350
C810        C  0.21341290  0.11377103  0.67345445     0.92820
O811        O  0.29553355  0.19474410  0.62014953    -0.82590
C812        C  0.32714392  0.21256123  0.61532463     0.92880
O813        O  0.11932286  0.20447789  0.80404664    -0.82570
Mg814      Mg  0.25158893  0.29556567  0.83497000     1.58180
O815        O  0.23809738  0.13783994  0.66109820    -0.80910
O816        O  0.30399008  0.37955543  0.79537845    -0.82600
O817        O  0.70299090  0.28928006  0.29111275    -0.88190
C818        C  0.72828547  0.29620436  0.17547419     0.87840
Mg819      Mg  0.74747033  0.29491215  0.33487396     1.58150
O820        O  0.70781673  0.20305540  0.21056476    -0.87920
O821        O  0.65723385  0.25125335  0.27113592    -0.75250
C822        C  0.88512494  0.17231271  0.28602535     0.92890
O823        O  0.76901907  0.34098019  0.25172470    -0.75060
O824        O  0.88059572  0.20451726  0.30279677    -0.82570
Mg825      Mg  0.70300330  0.33422865  0.24785995     1.57960
C826        C  0.78577399  0.11437466  0.17254546     0.92820
O827        O  0.63769660  0.33879299  0.23841709    -0.80830
H828        H  0.67287229  0.16423401  0.23453737    -0.06170
C829        C  0.82343667  0.22945079  0.20180373     0.87750
O830        O  0.75244519  0.22905173  0.34138092    -0.75340
O831        O  0.70827830  0.29001710  0.20410724    -0.88100
O832        O  0.76012707  0.13783430  0.16088317    -0.80910
C833        C  0.66994608  0.21276260  0.11647300     0.92930
C834        C  0.61355407  0.32649366  0.21377490     0.92780
Mg835      Mg  0.79550523  0.16423825  0.25182821     1.57950
O836        O  0.86089618  0.15961101  0.26163425    -0.80840
O837        O  0.72937136  0.15763295  0.24810687    -0.75080
O838        O  0.65863724  0.23825075  0.14011318    -0.80920
O839        O  0.69466976  0.37927926  0.29518840    -0.82630
O840        O  0.84030650  0.26224681  0.35963316    -0.80950
C841        C  0.70195289  0.17463441  0.23093203     0.87220
O842        O  0.79033743  0.20846074  0.29581175    -0.88090
O843        O  0.79524495  0.20898361  0.20851049    -0.88200
O844        O  0.84070189  0.24734898  0.22855554    -0.75250
Mg845      Mg  0.66331015  0.24700950  0.20518124     1.57970
O846        O  0.70136315  0.19453034  0.12120886    -0.82630
H847        H  0.66471045  0.26603562  0.32714384    -0.06350
O848        O  0.79032955  0.29566795  0.28952507    -0.87900
H849        H  0.82539484  0.33454440  0.26580861    -0.06180
H850        H  0.76740831  0.17300682  0.33478887    -0.06350
C851        C  0.79629807  0.32410407  0.26920895     0.87200
C852        C  0.67462593  0.26906300  0.29785395     0.87780
C853        C  0.77028815  0.20213061  0.32437137     0.87830
H854        H  0.83332618  0.23260740  0.17251707    -0.06330
O855        O  0.74581019  0.26913049  0.15834720    -0.75360
Mg856      Mg  0.83502382  0.25193198  0.29458733     1.58000
H857        H  0.73134977  0.32530793  0.16505072    -0.06350
C858        C  0.71188475  0.38390849  0.32711936     0.92820
O859        O  0.79560213  0.30361066  0.37948890    -0.82590
C860        C  0.82780529  0.28671005  0.38382472     0.92880
O861        O  0.61799922  0.29446463  0.19672159    -0.82570
Mg862      Mg  0.75024162  0.20319420  0.16510472     1.58180
O863        O  0.73665166  0.35994369  0.33956836    -0.80910
O864        O  0.80384260  0.11944415  0.20396669    -0.82600
C865        C  0.14981707  0.79261450  0.07996031     0.03290
C866        C  0.12682463  0.82595014  0.07486088    -0.12860
C867        C  0.10326532  0.82978520  0.04171092     0.00790
C868        C  0.10283855  0.80026218  0.01466547    -0.11390
C869        C  0.12508505  0.76742103  0.02011279     0.03280
C870        C  0.14843358  0.76355741  0.05248049    -0.10810
H871        H  0.12767143  0.84872693  0.09606214     0.08870
H872        H  0.08553383  0.80303176  0.98884867     0.06400
H873        H  0.16554793  0.73776254  0.05626255     0.06250
C874        C  0.15458695  0.59582180  0.87535718     0.03290
C875        C  0.15454041  0.62422737  0.90356076    -0.12860
C876        C  0.12649027  0.65293581  0.90300867     0.00790
C877        C  0.09805710  0.65260836  0.87460824    -0.11390
C878        C  0.09823224  0.62393688  0.84661792     0.03280
C879        C  0.12642861  0.59552083  0.84689270    -0.10810
H880        H  0.17589257  0.62348090  0.92626445     0.08870
H881        H  0.07611212  0.67474846  0.87399813     0.06400
H882        H  0.12636615  0.57318759  0.82514819     0.06250
C883        C  0.91929911  0.64572516  0.71049390     0.03290
C884        C  0.94840201  0.64455159  0.73792815    -0.12860
C885        C  0.98085043  0.62164624  0.73250458     0.00790
C886        C  0.98501630  0.59987509  0.69903808    -0.11390
C887        C  0.95642595  0.60013270  0.67096433     0.03280
C888        C  0.92328303  0.62342319  0.67648010    -0.10810
H889        H  0.94593225  0.66194759  0.76366885     0.08870
H890        H  0.01049680  0.58233677  0.69500974     0.06400
H891        H  0.90081096  0.62381302  0.65490593     0.06250
C892        C  0.29379102  0.41894162  0.85055207     0.03290
C893        C  0.32681766  0.42290496  0.87418223    -0.12860
C894        C  0.33069431  0.45523358  0.89870308     0.00790
C895        C  0.30181418  0.48293047  0.89918464    -0.11390
C896        C  0.26917605  0.47880223  0.87606574     0.03280
C897        C  0.26534084  0.44703716  0.85181838    -0.10810
H898        H  0.34909374  0.40114689  0.87356687     0.08870
H899        H  0.30474228  0.50785597  0.91767846     0.06400
H900        H  0.24020163  0.44427062  0.83356157     0.06250
O901        O  0.21068537  0.70886496  0.20397192    -0.88190
C902        C  0.20344950  0.82462966  0.22917242     0.87840
Mg903      Mg  0.20490157  0.66482134  0.24814244     1.58150
O904        O  0.29696960  0.79005878  0.20835345    -0.87920
O905        O  0.24848321  0.72923993  0.15820743    -0.75250
C906        C  0.32813972  0.71415481  0.38469768     0.92890
O907        O  0.15913773  0.74830400  0.26996522    -0.75060
O908        O  0.29644731  0.69639773  0.38013676    -0.82570
Mg909      Mg  0.16576108  0.75208897  0.20399068     1.57960
C910        C  0.38526936  0.82756988  0.28631942     0.92820
O911        O  0.16147967  0.76091701  0.13873014    -0.80830
H912        H  0.33553063  0.76592227  0.17320142    -0.06170
C913        C  0.27049754  0.79770198  0.32395454     0.87750
O914        O  0.27081969  0.65809107  0.25295672    -0.75340
O915        O  0.20990682  0.79601672  0.20925515    -0.88100
O916        O  0.36151704  0.83976741  0.26125430    -0.80910
C917        C  0.28721613  0.88452334  0.17166169     0.92930
C918        C  0.17330210  0.78584105  0.11470765     0.92780
Mg919      Mg  0.33548774  0.74810777  0.29548332     1.57950
O920        O  0.33983881  0.73928159  0.36080677    -0.80840
O921        O  0.34204499  0.75178430  0.22949357    -0.75080
O922        O  0.26248441  0.86035457  0.15961196    -0.80920
O923        O  0.12060791  0.70483169  0.19565165    -0.82630
O924        O  0.23818566  0.63961275  0.34024811    -0.80950
C925        C  0.32522483  0.76944771  0.20230433     0.87220
O926        O  0.29120543  0.70410953  0.29035895    -0.88090
O927        O  0.29061875  0.79120506  0.29547975    -0.88200
O928        O  0.25288509  0.77083629  0.34130920    -0.75250
Mg929      Mg  0.25283371  0.79526587  0.16423456     1.57970
O930        O  0.30491972  0.88003193  0.20338145    -0.82630
H931        H  0.23409400  0.67312290  0.16551212    -0.06350
O932        O  0.20415638  0.70998311  0.29117984    -0.87900
H933        H  0.16553236  0.73412797  0.32625726    -0.06180
H934        H  0.32681207  0.66495377  0.26818988    -0.06350
C935        C  0.17589656  0.73060919  0.29717528     0.87200
C936        C  0.23090901  0.70235070  0.17555919     0.87780
C937        C  0.29767524  0.67535747  0.27068716     0.87830
H938        H  0.26750116  0.82688314  0.33406821    -0.06330
O939        O  0.23038411  0.84188813  0.24679279    -0.75360
Mg940      Mg  0.24831806  0.70480193  0.33536556     1.58000
H941        H  0.17423343  0.83489307  0.23209034    -0.06350
C942        C  0.11578468  0.67305327  0.21300491     0.92820
O943        O  0.19631377  0.61979325  0.29596828    -0.82590
C944        C  0.21366216  0.61534533  0.32791513     0.92880
O945        O  0.20494928  0.80363737  0.11929470    -0.82570
Mg946      Mg  0.29634757  0.83523196  0.25127157     1.58180
O947        O  0.13974491  0.66056760  0.23775530    -0.80910
O948        O  0.38047353  0.79576551  0.30369042    -0.82600
C949        C  0.83110678  0.04092151  0.10387532     0.03290
C950        C  0.82659757  0.07449974  0.12663088    -0.12860
C951        C  0.79305144  0.07950991  0.14937562     0.00790
C952        C  0.76460111  0.05135633  0.14878757    -0.11390
C953        C  0.76923550  0.01820845  0.12664636     0.03280
C954        C  0.80208915  0.01331041  0.10414135    -0.10810
H955        H  0.84899700  0.09612200  0.12703449     0.08870
H956        H  0.73893541  0.05500231  0.16612831     0.06400
H957        H  0.80504380  0.98779221  0.08651020     0.06250
C958        C  0.65265434  0.90308686  0.12643425     0.03290
C959        C  0.65252523  0.87488415  0.09792872    -0.12860
C960        C  0.62431912  0.84624564  0.09824518     0.00790
C961        C  0.59675335  0.84578130  0.12739938    -0.11390
C962        C  0.59703236  0.87416709  0.15558973     0.03280
C963        C  0.62496690  0.90277972  0.15534596    -0.10810
H964        H  0.67402286  0.87557124  0.07537242     0.08870
H965        H  0.57535490  0.82315374  0.12854481     0.06400
H966        H  0.62516124  0.92466429  0.17753937     0.06250
C967        C  0.64618719  0.70921631  0.91996410     0.03290
C968        C  0.62286218  0.67589482  0.92349222    -0.12860
C969        C  0.60002912  0.67026074  0.95684118     0.00790
C970        C  0.60143699  0.69735112  0.98627386    -0.11390
C971        C  0.62455732  0.72990109  0.98273993     0.03280
C972        C  0.64650976  0.73593220  0.94978403    -0.10810
H973        H  0.62215464  0.65491220  0.90050932     0.08870
H974        H  0.58456832  0.69307896  0.01214503     0.06400
H975        H  0.66365613  0.76184831  0.94724160     0.06250
C976        C  0.41998120  0.85078515  0.29396885     0.03290
C977        C  0.42359063  0.87504012  0.32654621    -0.12860
C978        C  0.45676980  0.89830705  0.33120064     0.00790
C979        C  0.48581207  0.89664116  0.30371662    -0.11390
C980        C  0.48187898  0.87308139  0.27148183     0.03280
C981        C  0.44905170  0.85052359  0.26651070    -0.10810
H982        H  0.40101291  0.87570241  0.34797870     0.08870
H983        H  0.51140080  0.91414808  0.30715409     0.06400
H984        H  0.44623287  0.83254569  0.24118845     0.06250
C985        C  0.90584750  0.61900861  0.34870488     0.03290
C986        C  0.87507419  0.59375564  0.34620450    -0.12860
C987        C  0.84471716  0.59680518  0.37195129     0.00790
C988        C  0.84410872  0.62671074  0.39869446    -0.11390
C989        C  0.87555578  0.65209297  0.40252099     0.03280
C990        C  0.90746254  0.64582318  0.37846371    -0.10810
H991        H  0.87482010  0.57161083  0.32427927     0.08870
H992        H  0.81901418  0.62885778  0.41652766     0.06400
H993        H  0.93385773  0.66149057  0.38182674     0.06250
C994        C  0.08072378  0.65025224  0.20594698     0.03290
C995        C  0.05287522  0.64983546  0.23465237    -0.12860
C996        C  0.02071355  0.62601247  0.23149743     0.00790
C997        C  0.01557263  0.60331444  0.19875955    -0.11390
C998        C  0.04242178  0.60368721  0.16910543     0.03280
C999        C  0.07572351  0.62694023  0.17286563    -0.10810
H1000       H  0.05635176  0.66824054  0.25953779     0.08870
H1001       H  0.99047933  0.58494913  0.19637804     0.06400
H1002       H  0.09710461  0.62732217  0.15023671     0.06250
C1003       C  0.85735604  0.79141048  0.58485420     0.03290
C1004       C  0.87723098  0.82643530  0.57944382    -0.12860
C1005       C  0.89712650  0.83316596  0.54465191     0.00790
C1006       C  0.89348455  0.80691602  0.51462468    -0.11390
C1007       C  0.87571356  0.77113476  0.52045638     0.03280
C1008       C  0.86025105  0.76305714  0.55676112    -0.10810
H1009       H  0.87761139  0.84785221  0.60203421     0.08870
H1010       H  0.90534130  0.81468876  0.48698888     0.06400
H1011       H  0.84970114  0.73471125  0.56350799     0.06250
C1012       C  0.66924618  0.45529361  0.39914293     0.03290
C1013       C  0.67271874  0.42247789  0.37524625    -0.12860
C1014       C  0.70462062  0.41875494  0.35015777     0.00790
C1015       C  0.73216360  0.44767688  0.34907223    -0.11390
C1016       C  0.72932768  0.47952216  0.37338445     0.03280
C1017       C  0.69782024  0.48328313  0.39812723    -0.10810
H1018       H  0.65086334  0.40031354  0.37600848     0.08870
H1019       H  0.75597943  0.44522497  0.32914033     0.06400
H1020       H  0.69543151  0.50817711  0.41672248     0.06250
C1021       C  0.92006438  0.85089238  0.20755746     0.03290
C1022       C  0.92550060  0.87391086  0.17429586    -0.12860
C1023       C  0.95979079  0.89563663  0.16977381     0.00790
C1024       C  0.98785928  0.89375151  0.19833321    -0.11390
C1025       C  0.98196823  0.87175289  0.23123933     0.03280
C1026       C  0.94817688  0.85076839  0.23610437    -0.10810
H1027       H  0.90368130  0.87441573  0.15206154     0.08870
H1028       H  0.01438940  0.90987142  0.19523870     0.06400
H1029       H  0.94406223  0.83384646  0.26195666     0.06250
C1030       C  0.12537125  0.84632132  0.40372086     0.03290
C1031       C  0.09816946  0.84523953  0.37412022    -0.12860
C1032       C  0.09757973  0.87416455  0.34648303     0.00790
C1033       C  0.12450708  0.90373331  0.34740734    -0.11390
C1034       C  0.15191587  0.90449473  0.37663165     0.03280
C1035       C  0.15178490  0.87651661  0.40526921    -0.10810
H1036       H  0.07745183  0.82201333  0.37247361     0.08870
H1037       H  0.12429255  0.92580616  0.32541342     0.06400
H1038       H  0.17217363  0.87854415  0.42874140     0.06250
C1039       C  0.29147762  0.08102745  0.35270928     0.03290
C1040       C  0.32501681  0.07671257  0.37567874    -0.12860
C1041       C  0.32958881  0.04372508  0.39930994     0.00790
C1042       C  0.30095545  0.01574065  0.39948520    -0.11390
C1043       C  0.26796372  0.02012589  0.37693264     0.03280
C1044       C  0.26368372  0.05225658  0.35338273    -0.10810
H1045       H  0.34689908  0.09885833  0.37561652     0.08870
H1046       H  0.30421614  0.99055827  0.41755545     0.06400
H1047       H  0.23841432  0.05491965  0.33529535     0.06250
C1048       C  0.10152703  0.66919680  0.54421905     0.03290
C1049       C  0.10193856  0.69713325  0.51562375    -0.12860
C1050       C  0.12449249  0.73005601  0.51975849     0.00790
C1051       C  0.14774730  0.73492894  0.55216520    -0.11390
C1052       C  0.14885134  0.70693827  0.58070983     0.03280
C1053       C  0.12533370  0.67385315  0.57700033    -0.10810
H1054       H  0.08483287  0.69308605  0.48986043     0.08870
H1055       H  0.16491684  0.76077064  0.55525583     0.06400
H1056       H  0.12559464  0.65206909  0.59922807     0.06250
C1057       C  0.17001549  0.95781114  0.89787023     0.03290
C1058       C  0.19922180  0.98514481  0.89784475    -0.12860
C1059       C  0.23144984  0.98079080  0.87437261     0.00790
C1060       C  0.23544595  0.94810945  0.85137333    -0.11390
C1061       C  0.20696830  0.91995658  0.85102955     0.03280
C1062       C  0.17392150  0.92465802  0.87447590    -0.10810
H1063       H  0.19675489  0.01013062  0.91628717     0.08870
H1064       H  0.26065996  0.94473147  0.83333892     0.06400
H1065       H  0.15141510  0.90314367  0.87410045     0.06250
C1066       C  0.40324014  0.12535092  0.84527705     0.03290
C1067       C  0.40369482  0.15356215  0.87374967    -0.12860
C1068       C  0.37555397  0.15360176  0.90226163     0.00790
C1069       C  0.34748825  0.12496133  0.90293632    -0.11390
C1070       C  0.34761955  0.09639551  0.87482856     0.03280
C1071       C  0.37523706  0.09669475  0.84587113    -0.10810
H1072       H  0.42624265  0.17506128  0.87414184     0.08870
H1073       H  0.32569559  0.12486977  0.92522693     0.06400
H1074       H  0.37460362  0.07494925  0.82355288     0.06250
C1075       C  0.40024683  0.32974884  0.04337866     0.03290
C1076       C  0.39998196  0.30141240  0.01509671    -0.12860
C1077       C  0.37676368  0.26885070  0.01903494     0.00790
C1078       C  0.35307938  0.26475466  0.05113631    -0.11390
C1079       C  0.35310757  0.29212442  0.08030518     0.03280
C1080       C  0.37663647  0.32522370  0.07635780    -0.10810
H1081       H  0.41816550  0.30464047  0.98998645     0.08870
H1082       H  0.33437156  0.23996241  0.05353526     0.06400
H1083       H  0.37695835  0.34683987  0.09875321     0.06250
C1084       C  0.54384162  0.10055793  0.66950063     0.03290
C1085       C  0.57708098  0.12370453  0.67480314    -0.12860
C1086       C  0.58104419  0.14648788  0.70847142     0.00790
C1087       C  0.55172926  0.14596107  0.73574683    -0.11390
C1088       C  0.51908761  0.12348813  0.73005297     0.03280
C1089       C  0.51505621  0.10096604  0.69723760    -0.10810
H1090       H  0.59967346  0.12354734  0.65338156     0.08870
H1091       H  0.55438148  0.16288116  0.76180931     0.06400
H1092       H  0.48926856  0.08386090  0.69323559     0.06250
O1093       O  0.04074723  0.04574995  0.54060056    -0.88190
C1094       C  0.04735120  0.01831872  0.42495157     0.87840
Mg1095     Mg  0.04587766  0.00264183  0.58551706     1.58150
O1096       O  0.95411097  0.04150731  0.45907628    -0.87920
O1097       O  0.00378607  0.09166633  0.51899174    -0.75250
C1098       C  0.92055593  0.86784621  0.53786365     0.92890
O1099       O  0.09144003  0.97794797  0.50231483    -0.75060
O1100       O  0.95191502  0.87250942  0.55618151    -0.82570
Mg1101     Mg  0.08569939  0.04380992  0.49745065     1.57960
C1102       C  0.86464145  0.96380226  0.42324622     0.92820
O1103       O  0.09076689  0.10858494  0.48835508    -0.80830
H1104       H  0.91616388  0.07792022  0.48231490    -0.06170
C1105       C  0.97904324  0.92561403  0.45379052     0.87750
O1106       O  0.97985412  0.99904768  0.59234955    -0.75340
O1107       O  0.04126605  0.03843555  0.45349884    -0.88100
O1108       O  0.88884524  0.98800908  0.41030801    -0.80910
C1109       C  0.96357685  0.07654034  0.36426063     0.92930
C1110       C  0.08004479  0.13211017  0.46253064     0.92780
Mg1111     Mg  0.91442943  0.95619735  0.50273289     1.57950
O1112       O  0.90948274  0.89131308  0.51211027    -0.80840
O1113       O  0.90867282  0.02213111  0.49778408    -0.75080
O1114       O  0.98938098  0.08804814  0.38765286    -0.80920
O1115       O  0.13121395  0.05237850  0.54449967    -0.82630
O1116       O  0.01092378  0.91215202  0.61236185    -0.80950
C1117       C  0.92595954  0.04857031  0.47949639     0.87220
O1118       O  0.95881415  0.96167510  0.54665717    -0.88090
O1119       O  0.95929668  0.95450781  0.45957947    -0.88200
O1120       O  0.99636499  0.90864100  0.48111705    -0.75250
Mg1121     Mg  0.99939322  0.08436364  0.45305190     1.57970
O1122       O  0.94543532  0.04519157  0.36935279    -0.82630
H1123       H  0.01785932  0.08541617  0.57535028    -0.06350
O1124       O  0.04598451  0.95884824  0.54109912    -0.87900
H1125       H  0.08385977  0.92225452  0.51803621    -0.06180
H1126       H  0.92347431  0.98522188  0.58540319    -0.06350
C1127       C  0.07413586  0.95163926  0.52074065     0.87200
C1128       C  0.02097367  0.07463938  0.54636697     0.87780
C1129       C  0.95263172  0.98183614  0.57514355     0.87830
H1130       H  0.98193141  0.91474068  0.42485486    -0.06330
O1131       O  0.02004442  0.00126686  0.40770617    -0.75360
Mg1132     Mg  0.00089584  0.91591651  0.54705240     1.58000
H1133       H  0.07648477  0.01486350  0.41464453    -0.06350
C1134       C  0.13540510  0.03638631  0.57708928     0.92820
O1135       O  0.05435324  0.95544638  0.63084458    -0.82590
C1136       C  0.03647881  0.92395278  0.63585351     0.92880
O1137       O  0.04876969  0.12761246  0.44398119    -0.82570
Mg1138     Mg  0.95400743  0.99777135  0.41467432     1.58180
O1139       O  0.11091867  0.01262830  0.59028419    -0.80910
O1140       O  0.86907529  0.94742925  0.45560904    -0.82600
C1141       C  0.95856842  0.39718379  0.83112008     0.03290
C1142       C  0.98619500  0.39779683  0.80220595    -0.12860
C1143       C  0.98165244  0.37583779  0.76904367     0.00790
C1144       C  0.94880144  0.35345776  0.76390974    -0.11390
C1145       C  0.92012893  0.35244776  0.79185047     0.03280
C1146       C  0.92499976  0.37438402  0.82602168    -0.10810
H1147       H  0.01135347  0.41592673  0.80540887     0.08870
H1148       H  0.94558357  0.33656544  0.73790161     0.06400
H1149       H  0.90307984  0.37382119  0.84811809     0.06250
C1150       C  0.09541459  0.38099656  0.65142315     0.03290
C1151       C  0.12564698  0.40690749  0.65424326    -0.12860
C1152       C  0.15713931  0.40303041  0.63012125     0.00790
C1153       C  0.15941003  0.37243278  0.60440348    -0.11390
C1154       C  0.12762867  0.34810190  0.59892937     0.03280
C1155       C  0.09528298  0.35316137  0.62262242    -0.10810
H1156       H  0.12488274  0.42973599  0.67546227     0.08870
H1157       H  0.18585009  0.36849282  0.58862360     0.06400
H1158       H  0.07018257  0.33507969  0.61979082     0.06250
C1159       C  0.10379526  0.16668605  0.45604823     0.03290
C1160       C  0.12316401  0.17382748  0.42114766    -0.12860
C1161       C  0.14377850  0.20841993  0.41634306     0.00790
C1162       C  0.14137536  0.23647697  0.44487538    -0.11390
C1163       C  0.12508497  0.22866603  0.48117880     0.03280
C1164       C  0.10850901  0.19216015  0.48661689    -0.10810
H1165       H  0.12210566  0.15289540  0.39812575     0.08870
H1166       H  0.15306211  0.26422464  0.43789771     0.06400
H1167       H  0.09875433  0.18246968  0.51423495     0.06250
C1168       C  0.29384444  0.58165702  0.64827341     0.03290
C1169       C  0.32681007  0.57721922  0.62464052    -0.12860
C1170       C  0.33110461  0.54389288  0.60152186     0.00790
C1171       C  0.30301130  0.51545738  0.60287001    -0.11390
C1172       C  0.27038896  0.52036187  0.62561687     0.03280
C1173       C  0.26559340  0.55332820  0.64789471    -0.10810
H1174       H  0.34879393  0.59926693  0.62432808     0.08870
H1175       H  0.30634807  0.48949010  0.58593884     0.06400
H1176       H  0.24000503  0.55662249  0.66542845     0.06250
O1177       O  0.23050313  0.28564284  0.18640670    -0.88190
C1178       C  0.33642180  0.27538495  0.23980834     0.87840
Mg1179     Mg  0.18016356  0.30884457  0.21528700     1.58150
O1180       O  0.28543659  0.18764266  0.23026971    -0.87920
O1181       O  0.24846268  0.23275407  0.15794062    -0.75250
C1182       C  0.16613260  0.21749683  0.38119779     0.92890
O1183       O  0.26699314  0.34168852  0.25102506    -0.75060
O1184       O  0.16341983  0.25123849  0.36730425    -0.82570
Mg1185     Mg  0.28332725  0.31947794  0.19112273     1.57960
C1186       C  0.28236399  0.11633160  0.33061559     0.92820
O1187       O  0.31007163  0.30847831  0.13128430    -0.80830
H1188       H  0.26191632  0.14641484  0.19807164    -0.06170
C1189       C  0.27404283  0.24003638  0.33594212     0.87750
O1190       O  0.15766705  0.24874352  0.23080510    -0.75340
O1191       O  0.31242875  0.26940707  0.21438739    -0.88100
O1192       O  0.30798985  0.13185382  0.30951862    -0.80910
C1193       C  0.38428875  0.16925941  0.21696349     0.92930
C1194       C  0.33121875  0.28297450  0.11567416     0.92780
Mg1195     Mg  0.21601722  0.18065402  0.30689559     1.57950
O1196       O  0.18781090  0.19201221  0.36617848    -0.80840
O1197       O  0.23305276  0.15789339  0.24739916    -0.75080
O1198       O  0.36854710  0.19040043  0.19150830    -0.80920
O1199       O  0.25147962  0.37034857  0.16520005    -0.82630
O1200       O  0.13075179  0.30955877  0.30628015    -0.80950
C1201       C  0.26064668  0.16309228  0.22421406     0.87220
O1202       O  0.18695961  0.23066005  0.28317484    -0.88090
O1203       O  0.26858436  0.21479420  0.31170458    -0.88200
O1204       O  0.25025042  0.26721080  0.34069553    -0.75250
Mg1205     Mg  0.30851536  0.21687565  0.18027344     1.57970
O1206       O  0.37036499  0.16593669  0.25076458    -0.82630
H1207       H  0.19831348  0.26015693  0.14621241    -0.06350
O1208       O  0.21415776  0.31255593  0.26795885    -0.87900
H1209       H  0.23862375  0.35286591  0.30070777    -0.06180
H1210       H  0.14659628  0.19839172  0.25802686    -0.06350
C1211       C  0.23941457  0.33659705  0.27426251     0.87200
C1212       C  0.22474030  0.26000841  0.16262410     0.87780
C1213       C  0.16288622  0.22485608  0.25779978     0.87830
H1214       H  0.30016769  0.23953890  0.35276194    -0.06330
O1215       O  0.34144818  0.25180949  0.26710193    -0.75360
Mg1216     Mg  0.19050750  0.28319165  0.31750084     1.58000
H1217       H  0.35271252  0.30184750  0.23943150    -0.06350
C1218       C  0.21776649  0.38447869  0.16835553     0.92820
O1219       O  0.12899935  0.33491508  0.24746711    -0.82590
C1220       C  0.11512889  0.33116575  0.28123145     0.92880
O1221       O  0.33442753  0.24919487  0.12956781    -0.82570
Mg1222     Mg  0.31920421  0.19180449  0.28294868     1.58180
O1223       O  0.19198335  0.36887730  0.18920705    -0.80910
O1224       O  0.24846873  0.13020779  0.33354950    -0.82600
C1225       C  0.87246662  0.34701896  0.09737331     0.03290
C1226       C  0.84703899  0.37797467  0.09499765    -0.12860
C1227       C  0.84753101  0.40645230  0.12316054     0.00790
C1228       C  0.87447136  0.40516327  0.15277154    -0.11390
C1229       C  0.90058335  0.37482669  0.15454912     0.03280
C1230       C  0.89890878  0.34526996  0.12756262    -0.10810
H1231       H  0.82695919  0.38020815  0.07127677     0.08870
H1232       H  0.87505696  0.42761159  0.17437401     0.06400
H1233       H  0.91840759  0.32107768  0.12995436     0.06250
C1234       C  0.89756676  0.16873855  0.95928483     0.03290
C1235       C  0.87592547  0.17404574  0.92496947    -0.12860
C1236       C  0.85394811  0.20811225  0.91960976     0.00790
C1237       C  0.85444146  0.23616676  0.94817699    -0.11390
C1238       C  0.87550060  0.23071565  0.98178583     0.03280
C1239       C  0.89653613  0.19716641  0.98746292    -0.10810
H1240       H  0.87612660  0.15208375  0.90291709     0.08870
H1241       H  0.83831207  0.26257576  0.94430026     0.06400
H1242       H  0.91213673  0.19316264  0.01417241     0.06250
C1243       C  0.04461085  0.40072799  0.32971172     0.03290
C1244       C  0.07701821  0.37646974  0.32459847    -0.12860
C1245       C  0.07999316  0.35315438  0.29126010     0.00790
C1246       C  0.04989105  0.35314232  0.26487888    -0.11390
C1247       C  0.01796916  0.37718526  0.26977544     0.03280
C1248       C  0.01605339  0.40151940  0.30169347    -0.10810
H1249       H  0.09978984  0.37624751  0.34586204     0.08870
H1250       H  0.05154004  0.33419142  0.24020543     0.06400
H1251       H  0.99226511  0.42133359  0.30498034     0.06250
C1252       C  0.70594029  0.58126268  0.14897614     0.03290
C1253       C  0.67303497  0.57737758  0.12516177    -0.12860
C1254       C  0.66943194  0.54526266  0.10032970     0.00790
C1255       C  0.69843460  0.51775273  0.09967035    -0.11390
C1256       C  0.73050193  0.52123445  0.12366855     0.03280
C1257       C  0.73428924  0.55303585  0.14793284    -0.10810
H1258       H  0.65070133  0.59907507  0.12579964     0.08870
H1259       H  0.69594357  0.49346211  0.08032371     0.06400
H1260       H  0.75940691  0.55580741  0.16623850     0.06250
C1261       C  0.90387742  0.87352926  0.84698644     0.03290
C1262       C  0.87489936  0.90118313  0.84565860    -0.12860
C1263       C  0.84556389  0.90048677  0.87280451     0.00790
C1264       C  0.84483243  0.87243965  0.90123549    -0.11390
C1265       C  0.87389940  0.84486052  0.90260324     0.03280
C1266       C  0.90351627  0.84536404  0.87551955    -0.10810
H1267       H  0.87522871  0.92327269  0.82367283     0.08870
H1268       H  0.82222936  0.87266443  0.92269972     0.06400
H1269       H  0.92573555  0.82351339  0.87624044     0.06250
C1270       C  0.08032314  0.85164878  0.70634581     0.03290
C1271       C  0.07653883  0.87615337  0.67399861    -0.12860
C1272       C  0.04404183  0.90054627  0.67045749     0.00790
C1273       C  0.01615107  0.90023778  0.69909895    -0.11390
C1274       C  0.01957027  0.87562575  0.73066324     0.03280
C1275       C  0.05167791  0.85166355  0.73427750    -0.10810
H1276       H  0.09852191  0.87624068  0.65194862     0.08870
H1277       H  0.99163542  0.91933920  0.69671729     0.06400
H1278       H  0.05439054  0.83282175  0.75895658     0.06250
C1279       C  0.70888075  0.07923119  0.85222799     0.03290
C1280       C  0.67472443  0.07367918  0.87403856    -0.12860
C1281       C  0.66892024  0.03878882  0.89453820     0.00790
C1282       C  0.69684522  0.01016900  0.89237680    -0.11390
C1283       C  0.73031759  0.01590028  0.87124633     0.03280
C1284       C  0.73649932  0.05022465  0.85167795    -0.10810
H1285       H  0.65310612  0.09606571  0.87504930     0.08870
H1286       H  0.69292526  0.98341151  0.90787549     0.06400
H1287       H  0.76287224  0.05409240  0.83547356     0.06250
C1288       C  0.85113309  0.70716727  0.08084762     0.03290
C1289       C  0.87412293  0.67383374  0.07541535    -0.12860
C1290       C  0.89723066  0.67003876  0.04192267     0.00790
C1291       C  0.89722698  0.69961514  0.01496225    -0.11390
C1292       C  0.87496475  0.73233850  0.02079316     0.03280
C1293       C  0.85205404  0.73620119  0.05336540    -0.10810
H1294       H  0.87361169  0.65104885  0.09660385     0.08870
H1295       H  0.91427549  0.69704703  0.98897505     0.06400
H1296       H  0.83489736  0.76194970  0.05727575     0.06250
O1297       O  0.20939592  0.70499734  0.70947135    -0.88190
C1298       C  0.32507134  0.73080908  0.70262929     0.87840
Mg1299     Mg  0.16492203  0.74883126  0.70428820     1.58150
O1300       O  0.29042261  0.70940408  0.79579323    -0.87920
O1301       O  0.22992947  0.65901924  0.74687768    -0.75250
C1302       C  0.21383143  0.88514897  0.82775116     0.92890
O1303       O  0.24801275  0.77153779  0.65842765    -0.75060
O1304       O  0.19624096  0.88065628  0.79597467    -0.82570
Mg1305     Mg  0.25233643  0.70557975  0.66450479     1.57960
C1306       C  0.32728376  0.78625077  0.88516759     0.92820
O1307       O  0.26188786  0.64040160  0.65966000    -0.80830
H1308       H  0.26707021  0.67379371  0.83424104    -0.06170
C1309       C  0.29752080  0.82498365  0.77033602     0.87750
O1310       O  0.15848292  0.75272052  0.77022414    -0.75340
O1311       O  0.29651549  0.71066769  0.70871535    -0.88100
O1312       O  0.33972987  0.76167014  0.86106415    -0.80910
C1313       C  0.38518118  0.67293366  0.78642936     0.92930
C1314       C  0.28676609  0.61635970  0.67166963     0.92780
Mg1315     Mg  0.24797919  0.79577012  0.83519441     1.57950
O1316       O  0.23849699  0.86096373  0.83991845    -0.80840
O1317       O  0.25226453  0.72980479  0.84126176    -0.75080
O1318       O  0.36112949  0.66083219  0.76157785    -0.80920
O1319       O  0.20437643  0.69729080  0.61973053    -0.82630
O1320       O  0.13929156  0.84062081  0.73810490    -0.80950
C1321       C  0.27010268  0.70294832  0.82412450     0.87220
O1322       O  0.20392734  0.79069389  0.79099237    -0.88090
O1323       O  0.29119517  0.79643345  0.79037738    -0.88200
O1324       O  0.27053186  0.84212932  0.75265560    -0.75250
Mg1325     Mg  0.29590162  0.66547542  0.75151167     1.57970
O1326       O  0.38056875  0.70468800  0.80398473    -0.82630
H1327       H  0.17388534  0.66593308  0.73186588    -0.06350
O1328       O  0.20984852  0.79200990  0.70385987    -0.87900
H1329       H  0.23341771  0.82763566  0.66541804    -0.06180
H1330       H  0.16533680  0.76705326  0.82642239    -0.06350
C1331       C  0.23021856  0.79844028  0.67553810     0.87200
C1332       C  0.20301084  0.67629347  0.72923180     0.87780
C1333       C  0.17554017  0.77036296  0.79726037     0.87830
H1334       H  0.32666550  0.83535535  0.76744033    -0.06330
O1335       O  0.34208478  0.74834622  0.72977421    -0.75360
Mg1336     Mg  0.20451223  0.83587482  0.74811601     1.58000
H1337       H  0.33557025  0.73389838  0.67358632    -0.06350
C1338       C  0.17243587  0.71458857  0.61519078     0.92820
O1339       O  0.11959908  0.79636072  0.69623505    -0.82590
C1340       C  0.11508167  0.82827001  0.71353743     0.92880
O1341       O  0.30433907  0.62084152  0.70346876    -0.82570
Mg1342     Mg  0.33546589  0.75239631  0.79572641     1.58180
O1343       O  0.16029703  0.73949613  0.63909807    -0.80910
O1344       O  0.29550799  0.80376380  0.88036641    -0.82600
C1345       C  0.81623589  0.92994270  0.87214373    -0.05310
C1346       C  0.77934685  0.92068379  0.85921241    -0.32740
C1347       C  0.75103080  0.94885921  0.85802434     0.36510
C1348       C  0.75973341  0.98621741  0.87071564    -0.05660
C1349       C  0.79674088  0.99530308  0.88373490    -0.32640
C1350       C  0.82514054  0.96727346  0.88421853     0.36420
H1351       H  0.77278275  0.89176289  0.84979821     0.16790
O1352       O  0.71512640  0.93983430  0.84435000    -0.60130
H1353       H  0.80341047  0.02400152  0.89384076     0.16800
O1354       O  0.86117095  0.97607701  0.89757901    -0.60230
H1355       H  0.87511946  0.98669893  0.87511981     0.43800
H1356       H  0.71638429  0.94467313  0.81628873     0.43760
C1357       C  0.87446874  0.76198249  0.99158626    -0.05310
C1358       C  0.84212479  0.76530814  0.96794796    -0.32740
C1359       C  0.84159914  0.79237675  0.93858412     0.36510
C1360       C  0.87381536  0.81610503  0.93294514    -0.05660
C1361       C  0.90616172  0.81273555  0.95675247    -0.32640
C1362       C  0.90656390  0.78576315  0.98618981     0.36420
H1363       H  0.81762386  0.74646255  0.97192084     0.16790
O1364       O  0.81044085  0.79431258  0.91441695    -0.60130
H1365       H  0.93089802  0.83124561  0.95264600     0.16800
O1366       O  0.93836076  0.78254428  0.00934153    -0.60230
H1367       H  0.93381059  0.80071558  0.03082339     0.43800
H1368       H  0.78988745  0.80708914  0.92948772     0.43760
C1369       C  0.93373729  0.87358310  0.81768971    -0.05310
C1370       C  0.92279588  0.87204466  0.77902394    -0.32740
C1371       C  0.95049805  0.87268228  0.75023978     0.36510
C1372       C  0.98967138  0.87510169  0.76028304    -0.05660
C1373       C  0.00051295  0.87668141  0.79910838    -0.32640
C1374       C  0.97275221  0.87557636  0.82786241     0.36420
H1375       H  0.89267819  0.86988314  0.77119292     0.16790
O1376       O  0.93922946  0.86903503  0.71258579    -0.60130
H1377       H  0.03054523  0.87908772  0.80713541     0.16800
O1378       O  0.98376939  0.87805489  0.86566392    -0.60230
H1379       H  0.99349407  0.85212817  0.87241753     0.43800
H1380       H  0.92614614  0.89352806  0.70609593     0.43760
C1381       C  0.87497856  0.26020357  0.01145722    -0.05310
C1382       C  0.83957373  0.27227789  0.02628037    -0.32740
C1383       C  0.83816248  0.30059947  0.05445096     0.36510
C1384       C  0.87263757  0.31719578  0.06772590    -0.05660
C1385       C  0.90803712  0.30512080  0.05259331    -0.32640
C1386       C  0.90941047  0.27642563  0.02488700     0.36420
H1387       H  0.81302388  0.25930864  0.01632532     0.16790
O1388       O  0.80330946  0.31049063  0.07014340    -0.60130
H1389       H  0.93471435  0.31818547  0.06205590     0.16800
O1390       O  0.94426932  0.26550607  0.00992278    -0.60230
H1391       H  0.95642578  0.24932083  0.03001182     0.43800
H1392       H  0.78932647  0.32448097  0.04958884     0.43760
C1393       C  0.93037855  0.37467790  0.18396885    -0.05310
C1394       C  0.91991344  0.37808054  0.22261078    -0.32740
C1395       C  0.94802441  0.37906487  0.25111755     0.36510
C1396       C  0.98722908  0.37724192  0.24070802    -0.05660
C1397       C  0.99739662  0.37445538  0.20174734    -0.32640
C1398       C  0.96927798  0.37235668  0.17350828     0.36420
H1399       H  0.88982840  0.37938463  0.23070119     0.16790
O1400       O  0.93684226  0.37976017  0.28894414    -0.60130
H1401       H  0.02729554  0.37404184  0.19299418     0.16800
O1402       O  0.98004637  0.36970222  0.13564587    -0.60230
H1403       H  0.98783370  0.34253607  0.13189268     0.43800
H1404       H  0.92525158  0.40549330  0.29304043     0.43760
C1405       C  0.81817606  0.43616282  0.12285655    -0.05310
C1406       C  0.77963557  0.42497512  0.12532021    -0.32740
C1407       C  0.75066424  0.45246578  0.12577558     0.36510
C1408       C  0.76039624  0.49164360  0.12326085    -0.05660
C1409       C  0.79912714  0.50273933  0.12074062    -0.32640
C1410       C  0.82810302  0.47516291  0.12102116     0.36420
H1411       H  0.77208804  0.39483693  0.12762737     0.16790
O1412       O  0.71320462  0.44100417  0.13075126    -0.60130
H1413       H  0.80688647  0.53280295  0.11843370     0.16800
O1414       O  0.86584775  0.48634448  0.11830281    -0.60230
H1415       H  0.87291878  0.49551822  0.14435490     0.43800
H1416       H  0.70590061  0.42791305  0.10648986     0.43760
C1417       C  0.12806698  0.31739093  0.56926643    -0.05310
C1418       C  0.10580504  0.28419997  0.57458260    -0.32740
C1419       C  0.10244030  0.25646752  0.54592326     0.36510
C1420       C  0.12593027  0.25847035  0.51258224    -0.05660
C1421       C  0.15018492  0.29083466  0.50885903    -0.32640
C1422       C  0.14927639  0.32102652  0.53502424     0.36420
H1423       H  0.08951473  0.27973290  0.60065098     0.16790
O1424       O  0.07383081  0.22969861  0.55013217    -0.60130
H1425       H  0.16997925  0.29429403  0.48535701     0.16800
O1426       O  0.16697685  0.35490085  0.52516894    -0.60230
H1427       H  0.19488761  0.34906139  0.52382348     0.43800
H1428       H  0.08176465  0.21333445  0.57212155     0.43760
C1429       C  0.24135595  0.49041755  0.62663790    -0.05310
C1430       C  0.25091213  0.45451354  0.64207953    -0.32740
C1431       C  0.22331683  0.42566263  0.64390022     0.36510
C1432       C  0.18628644  0.43278433  0.62971320    -0.05660
C1433       C  0.17671295  0.46865158  0.61425492    -0.32640
C1434       C  0.20420592  0.49754775  0.61252487     0.36420
H1435       H  0.27958352  0.44914821  0.65310850     0.16790
O1436       O  0.23253122  0.39080530  0.65970888    -0.60130
H1437       H  0.14804761  0.47397612  0.60315822     0.16800
O1438       O  0.19476453  0.53246275  0.59683291    -0.60230
H1439       H  0.20065731  0.53000419  0.56905371     0.43800
H1440       H  0.22540186  0.39297687  0.68721665     0.43760
C1441       C  0.01098527  0.37706482  0.73905191    -0.05310
C1442       C  0.99961521  0.38298571  0.70082925    -0.32740
C1443       C  0.02694507  0.38420335  0.67172402     0.36510
C1444       C  0.06597122  0.38056359  0.68103868    -0.05660
C1445       C  0.07743216  0.37455971  0.71912377    -0.32640
C1446       C  0.05015778  0.37256126  0.74820169     0.36420
H1447       H  0.96953437  0.38683059  0.69357216     0.16790
O1448       O  0.01553429  0.39000558  0.63448499    -0.60130
H1449       H  0.10756897  0.37060248  0.72615719     0.16800
O1450       O  0.06172659  0.36425282  0.78502114    -0.60230
H1451       H  0.07565094  0.38741598  0.79411340     0.43800
H1452       H  0.00472425  0.36505610  0.62591733     0.43760
C1453       C  0.37599085  0.18317714  0.93183091    -0.05310
C1454       C  0.37894115  0.17216701  0.97034503    -0.32740
C1455       C  0.37964856  0.19985286  0.99917457     0.36510
C1456       C  0.37692534  0.23904000  0.98931012    -0.05660
C1457       C  0.37401726  0.24990854  0.95061964    -0.32640
C1458       C  0.37398543  0.22218913  0.92183901     0.36420
H1459       H  0.38132096  0.14206448  0.97798157     0.16790
O1460       O  0.38487126  0.18856504  0.03663067    -0.60130
H1461       H  0.37140498  0.27991105  0.94271917     0.16800
O1462       O  0.37054308  0.23325406  0.88416148    -0.60230
H1463       H  0.39641185  0.24264331  0.87667413     0.43800
H1464       H  0.36079797  0.17515462  0.04400003     0.43760
C1465       C  0.48902661  0.12353779  0.75890771    -0.05310
C1466       C  0.46852584  0.15743783  0.76560468    -0.32740
C1467       C  0.44014339  0.15842133  0.79371664     0.36510
C1468       C  0.43252621  0.12515683  0.81535242    -0.05660
C1469       C  0.45302199  0.09118093  0.80838043    -0.32640
C1470       C  0.48126451  0.09023711  0.78020268     0.36420
H1471       H  0.47438621  0.18298539  0.74878761     0.16790
O1472       O  0.41883881  0.19126042  0.79872258    -0.60130
H1473       H  0.44742276  0.06554620  0.82515707     0.16800
O1474       O  0.50137715  0.05691828  0.77384382    -0.60230
H1475       H  0.52362160  0.05806263  0.79166989     0.43800
H1476       H  0.43629137  0.20972363  0.81167497     0.43760
C1477       C  0.26109747  0.01061641  0.87405524    -0.05310
C1478       C  0.29979830  0.99995964  0.87796605    -0.32740
C1479       C  0.32845494  0.02782811  0.87799295     0.36510
C1480       C  0.31824069  0.06671941  0.87498650    -0.05660
C1481       C  0.27973470  0.07749960  0.87100175    -0.32640
C1482       C  0.25106681  0.04966159  0.87024861     0.36420
H1483       H  0.30776560  0.97004095  0.88129543     0.16790
O1484       O  0.36620031  0.01706702  0.88217011    -0.60130
H1485       H  0.27201560  0.10750630  0.86776106     0.16800
O1486       O  0.21364011  0.06059309  0.86389647    -0.60230
H1487       H  0.20556551  0.07436585  0.88751983     0.43800
H1488       H  0.37431307  0.00787828  0.85643785     0.43760
C1489       C  0.18147545  0.93396124  0.37686809    -0.05310
C1490       C  0.17085936  0.97238892  0.38147680    -0.32740
C1491       C  0.19890853  0.00091336  0.38204181     0.36510
C1492       C  0.23789863  0.99074917  0.37751139    -0.05660
C1493       C  0.24831690  0.95214221  0.37287068    -0.32640
C1494       C  0.22029827  0.92368997  0.37286899     0.36420
H1495       H  0.14088343  0.98013482  0.38517758     0.16790
O1496       O  0.18827985  0.03831012  0.38876323    -0.60130
H1497       H  0.27816749  0.94410558  0.36883555     0.16800
O1498       O  0.23081089  0.88607389  0.36756848    -0.60230
H1499       H  0.23969598  0.87707052  0.39311871     0.43800
H1500       H  0.17443603  0.04668190  0.36526897     0.43760
C1501       C  0.12558953  0.81635146  0.43329541    -0.05310
C1502       C  0.09052989  0.80451811  0.44933407    -0.32740
C1503       C  0.08967853  0.77585189  0.47714284     0.36510
C1504       C  0.12433693  0.75937352  0.48978186    -0.05660
C1505       C  0.15938370  0.77109393  0.47387146    -0.32640
C1506       C  0.16025448  0.79934634  0.44561008     0.36420
H1507       H  0.06372052  0.81780058  0.44058000     0.16790
O1508       O  0.05512938  0.76529151  0.49302356    -0.60130
H1509       H  0.18610609  0.75790790  0.48305712     0.16800
O1510       O  0.19475596  0.80876737  0.42889102    -0.60230
H1511       H  0.20957308  0.82248165  0.44904684     0.43800
H1512       H  0.04213570  0.74951937  0.47312546     0.43760
C1513       C  0.01140428  0.87121040  0.26090274    -0.05310
C1514       C  0.00334321  0.88777514  0.29663978    -0.32740
C1515       C  0.03178082  0.88936802  0.32469764     0.36510
C1516       C  0.06815214  0.87372519  0.31701892    -0.05660
C1517       C  0.07623996  0.85695638  0.28143759    -0.32640
C1518       C  0.04789992  0.85562566  0.25322524     0.36420
H1519       H  0.97526815  0.90003720  0.30241181     0.16790
O1520       O  0.02391824  0.90604661  0.35953194    -0.60130
H1521       H  0.10438820  0.84482725  0.27572781     0.16800
O1522       O  0.05596679  0.83920195  0.21830286    -0.60230
H1523       H  0.04899952  0.81172614  0.22119183     0.43800
H1524       H  0.03167864  0.93331530  0.35668311     0.43760
C1525       C  0.87513888  0.68404077  0.43159447    -0.05310
C1526       C  0.84763978  0.68385058  0.46138078    -0.32740
C1527       C  0.84531411  0.71348885  0.48805474     0.36510
C1528       C  0.87423577  0.74186692  0.48930993    -0.05660
C1529       C  0.90195889  0.74217805  0.46002105    -0.32640
C1530       C  0.90094796  0.71562483  0.43008315     0.36420
H1531       H  0.82675548  0.66132002  0.46475781     0.16790
O1532       O  0.81310289  0.71566878  0.51085004    -0.60130
H1533       H  0.92452327  0.76348911  0.45925459     0.16800
O1534       O  0.92319389  0.72314587  0.39840379    -0.60230
H1535       H  0.95029652  0.72161485  0.40729490     0.43800
H1536       H  0.81295934  0.69191418  0.52663392     0.43760
C1537       C  0.93524802  0.61924640  0.31875450    -0.05310
C1538       C  0.97415766  0.61838206  0.32905019    -0.32740
C1539       C  0.00252964  0.62121021  0.30098017     0.36510
C1540       C  0.99181767  0.62484621  0.26209820    -0.05660
C1541       C  0.95280498  0.62604088  0.25197108    -0.32640
C1542       C  0.92453468  0.62290559  0.27994082     0.36420
H1543       H  0.98253411  0.61532987  0.35890371     0.16790
O1544       O  0.04047386  0.61860032  0.31158635    -0.60130
H1545       H  0.94417435  0.62962967  0.22224637     0.16800
O1546       O  0.88656443  0.62536257  0.26934674    -0.60230
H1547       H  0.88038158  0.60023545  0.25738275     0.43800
H1548       H  0.04633583  0.64307129  0.32499446     0.43760
C1549       C  0.81469975  0.56732948  0.37201194    -0.05310
C1550       C  0.82586939  0.52864801  0.37260360    -0.32740
C1551       C  0.79840734  0.49963259  0.37290820     0.36510
C1552       C  0.75908539  0.50934059  0.37265146    -0.05660
C1553       C  0.74794924  0.54806961  0.37207780    -0.32640
C1554       C  0.77548089  0.57707646  0.37217051     0.36420
H1555       H  0.85606899  0.52090022  0.37348315     0.16790
O1556       O  0.81020159  0.46206346  0.37548410    -0.60130
H1557       H  0.71778634  0.55590395  0.37125889     0.16800
O1558       O  0.76388285  0.61472411  0.37083154    -0.60230
H1559       H  0.75232200  0.62008195  0.39634358     0.43800
H1560       H  0.82236899  0.45611040  0.35038966     0.43760
C1561       C  0.56771270  0.87402816  0.18516395    -0.05310
C1562       C  0.57802195  0.86510541  0.22295950    -0.32740
C1563       C  0.55003334  0.86414215  0.25148884     0.36510
C1564       C  0.51168153  0.87294526  0.24207307    -0.05660
C1565       C  0.50153872  0.88195071  0.20416453    -0.32640
C1566       C  0.52941368  0.88224155  0.17558754     0.36420
H1567       H  0.60761928  0.85836462  0.23010396     0.16790
O1568       O  0.56020799  0.85423957  0.28827825    -0.60130
H1569       H  0.47205420  0.88901743  0.19686374     0.16800
O1570       O  0.51939108  0.89168084  0.13864570    -0.60230
H1571       H  0.50997533  0.86745447  0.12696198     0.43800
H1572       H  0.55815344  0.82583420  0.28919098     0.43760
C1573       C  0.62407374  0.81640727  0.06862987    -0.05310
C1574       C  0.65847202  0.79735026  0.05970903    -0.32740
C1575       C  0.65889781  0.76859710  0.03196765     0.36510
C1576       C  0.62462771  0.75876455  0.01299837    -0.05660
C1577       C  0.59021372  0.77750597  0.02198059    -0.32640
C1578       C  0.58978520  0.80649785  0.04943341     0.36420
H1579       H  0.68492118  0.80446403  0.07460696     0.16790
O1580       O  0.69277565  0.75018940  0.02360344    -0.60130
H1581       H  0.56384663  0.77018333  0.00702573     0.16800
O1582       O  0.55591687  0.82529776  0.05688348    -0.60230
H1583       H  0.55593590  0.84784074  0.03949993     0.43800
H1584       H  0.69372110  0.72787841  0.04130235     0.43760
C1585       C  0.68215988  0.93261468  0.12638219    -0.05310
C1586       C  0.72036794  0.92195467  0.13287423    -0.32740
C1587       C  0.74913691  0.94973115  0.13341176     0.36510
C1588       C  0.73950309  0.98849378  0.12691486    -0.05660
C1589       C  0.70109845  0.99902639  0.12051263    -0.32640
C1590       C  0.67232753  0.97126628  0.12062034     0.36420
H1591       H  0.72773240  0.89214304  0.13810741     0.16790
O1592       O  0.78618254  0.93914376  0.14210990    -0.60130
H1593       H  0.69349004  0.02875252  0.11519611     0.16800
O1594       O  0.63489567  0.98183396  0.11396666    -0.60230
H1595       H  0.62516781  0.99123736  0.13905001     0.43800
H1596       H  0.79554174  0.92472225  0.11936901     0.43760
C1597       C  0.23948463  0.50851287  0.87642096    -0.05310
C1598       C  0.25040385  0.54694900  0.87140211    -0.32740
C1599       C  0.22279487  0.57581556  0.87141717     0.36510
C1600       C  0.18391071  0.56611588  0.87588213    -0.05660
C1601       C  0.17283639  0.52784283  0.88095505    -0.32640
C1602       C  0.20047103  0.49891685  0.88139254     0.36420
H1603       H  0.28033721  0.55450778  0.86708450     0.16790
O1604       O  0.23374291  0.61321608  0.86561064    -0.60130
H1605       H  0.14279939  0.52052271  0.88499975     0.16800
O1606       O  0.18944141  0.46170022  0.88836753    -0.60230
H1607       H  0.17593937  0.45318231  0.86473085     0.43800
H1608       H  0.24277887  0.62245184  0.89102665     0.43760
C1609       C  0.06849738  0.62322358  0.81735163    -0.05310
C1610       C  0.03058840  0.61566603  0.82828167    -0.32740
C1611       C  0.00165458  0.61443193  0.80068144     0.36510
C1612       C  0.01087032  0.62115498  0.76185784    -0.05660
C1613       C  0.04897086  0.62854185  0.75104660    -0.32640
C1614       C  0.07787811  0.62930403  0.77865016     0.36420
H1615       H  0.02358993  0.61029854  0.85815845     0.16790
O1616       O  0.96484234  0.60512344  0.81150520    -0.60130
H1617       H  0.05617964  0.63419472  0.72127798     0.16800
O1618       O  0.11495754  0.63727099  0.76791074    -0.60230
H1619       H  0.12568436  0.61242979  0.75896132     0.43800
H1620       H  0.95516796  0.62771314  0.82595500     0.43760
C1621       C  0.12523817  0.73772464  0.99073577    -0.05310
C1622       C  0.15936014  0.73042278  0.97078299    -0.32740
C1623       C  0.16008342  0.70304597  0.94167117     0.36510
C1624       C  0.12632440  0.68258210  0.93273028    -0.05660
C1625       C  0.09212728  0.69010052  0.95271659    -0.32640
C1626       C  0.09142770  0.71765517  0.98163975     0.36420
H1627       H  0.18523840  0.74652417  0.97733766     0.16790
O1628       O  0.19319452  0.69780887  0.92081838    -0.60130
H1629       H  0.06608903  0.67426151  0.94617568     0.16800
O1630       O  0.05774099  0.72483464  0.00087127    -0.60230
H1631       H  0.05743562  0.70632991  0.02253711     0.43800
H1632       H  0.21133502  0.68458393  0.93841646     0.43760
C1633       C  0.17964865  0.06398340  0.12396476    -0.05310
C1634       C  0.16972951  0.02573404  0.11685742    -0.32740
C1635       C  0.19811640  0.99747768  0.11687697     0.36510
C1636       C  0.23652912  0.00781249  0.12447945    -0.05660
C1637       C  0.24613382  0.04617621  0.13196160    -0.32640
C1638       C  0.21790361  0.07434230  0.13136075     0.36420
H1639       H  0.14015721  0.01800331  0.11073014     0.16790
O1640       O  0.18855385  0.96035448  0.10761515    -0.60130
H1641       H  0.27558089  0.05425232  0.13828882     0.16800
O1642       O  0.22761205  0.11178855  0.13893357    -0.60230
H1643       H  0.23693222  0.12228993  0.11413745     0.43800
H1644       H  0.17470822  0.95018792  0.13035738     0.43760
C1645       C  0.12560313  0.18121490  0.06528018    -0.05310
C1646       C  0.09059676  0.19405355  0.04984466    -0.32740
C1647       C  0.09002314  0.22279476  0.02211806     0.36510
C1648       C  0.12488818  0.23825158  0.00884064    -0.05660
C1649       C  0.15990770  0.22523836  0.02381987    -0.32640
C1650       C  0.16052345  0.19697552  0.05208654     0.36420
H1651       H  0.06357025  0.18169136  0.05921224     0.16790
O1652       O  0.05545706  0.23468740  0.00717043    -0.60130
H1653       H  0.18680814  0.23767196  0.01416890     0.16800
O1654       O  0.19508155  0.18656094  0.06813312    -0.60230
H1655       H  0.20900633  0.17229262  0.04774451     0.43800
H1656       H  0.04334013  0.25042385  0.02763075     0.43760
C1657       C  0.01165604  0.12671091  0.24071061    -0.05310
C1658       C  0.00077443  0.12573385  0.20189022    -0.32740
C1659       C  0.02848806  0.12628549  0.17314213     0.36510
C1660       C  0.06757230  0.12698306  0.18320239    -0.05660
C1661       C  0.07867859  0.12799328  0.22182748    -0.32640
C1662       C  0.05094223  0.12805064  0.25069950     0.36420
H1663       H  0.97070630  0.12405294  0.19381592     0.16790
O1664       O  0.01729050  0.12437396  0.13535680    -0.60130
H1665       H  0.10888459  0.12905569  0.22952801     0.16800
O1666       O  0.06232571  0.13112601  0.28836960    -0.60230
H1667       H  0.07499650  0.10635219  0.29460370     0.43800
H1668       H  0.00943807  0.15089316  0.12847628     0.43760
C1669       C  0.87473818  0.18559808  0.56760767    -0.05310
C1670       C  0.83973675  0.20191981  0.55589346    -0.32740
C1671       C  0.83893018  0.22951948  0.52698111     0.36510
C1672       C  0.87357889  0.24167176  0.51014825    -0.05660
C1673       C  0.90858296  0.22569835  0.52200283    -0.32640
C1674       C  0.90940306  0.19766007  0.55048684     0.36420
H1675       H  0.81293118  0.19331007  0.56924723     0.16790
O1676       O  0.80443239  0.24550417  0.51634071    -0.60130
H1677       H  0.93530373  0.23452135  0.50860734     0.16800
O1678       O  0.94383395  0.18072386  0.55984280    -0.60230
H1679       H  0.95861961  0.20065861  0.57389560     0.43800
H1680       H  0.79128428  0.22554819  0.50077827     0.43760
C1681       C  0.98896433  0.12686373  0.73947796    -0.05310
C1682       C  0.95004153  0.12533301  0.75030311    -0.32740
C1683       C  0.92119880  0.12399416  0.72260714     0.36510
C1684       C  0.93114156  0.12563784  0.68359100    -0.05660
C1685       C  0.96978119  0.12748923  0.67256493    -0.32640
C1686       C  0.99877003  0.12781090  0.70015589     0.36420
H1687       H  0.94185793  0.12532978  0.78034069     0.16790
O1688       O  0.88339293  0.12260771  0.73385387    -0.60130
H1689       H  0.97749107  0.12806316  0.64237792     0.16800
O1690       O  0.03645292  0.12693354  0.68839144    -0.60230
H1691       H  0.04129236  0.15229009  0.67629459     0.43800
H1692       H  0.87887561  0.09559919  0.74174570     0.43760
C1693       C  0.76207847  0.00972881  0.62049559    -0.05310
C1694       C  0.75162391  0.04799449  0.62736799    -0.32740
C1695       C  0.77943143  0.07667327  0.62732107     0.36510
C1696       C  0.81805702  0.06692851  0.62090616    -0.05660
C1697       C  0.82863962  0.02885946  0.61375093    -0.32640
C1698       C  0.80077392  0.00013628  0.61333938     0.36420
H1699       H  0.72195855  0.05551808  0.63330897     0.16790
O1700       O  0.76900067  0.11389005  0.63506658    -0.60130
H1701       H  0.85844435  0.02154615  0.60825802     0.16800
O1702       O  0.81120412  0.96313346  0.60448896    -0.60230
H1703       H  0.82562566  0.95362728  0.62718628     0.43800
H1704       H  0.75982641  0.12444685  0.61022742     0.43760
C1705       C  0.31822678  0.56770132  0.12580286    -0.05310
C1706       C  0.28298094  0.57582079  0.14331109    -0.32740
C1707       C  0.25416982  0.54812359  0.14373214     0.36510
C1708       C  0.26114272  0.51212050  0.12691088    -0.05660
C1709       C  0.29654777  0.50401836  0.10959333    -0.32640
C1710       C  0.32508939  0.53191906  0.10867032     0.36420
H1711       H  0.27794762  0.60354403  0.15659567     0.16790
O1712       O  0.21985966  0.55583269  0.16161992    -0.60130
H1713       H  0.30174442  0.47627307  0.09642577     0.16800
O1714       O  0.35958052  0.52409782  0.09123512    -0.60230
H1715       H  0.35640258  0.53268024  0.06423975     0.43800
H1716       H  0.20464890  0.57073188  0.14265438     0.43760
C1717       C  0.49119886  0.62389658  0.23904071    -0.05310
C1718       C  0.45272275  0.62959939  0.24958740    -0.32740
C1719       C  0.42405013  0.63001144  0.22172776     0.36510
C1720       C  0.43397605  0.62528404  0.18295134    -0.05660
C1721       C  0.47231651  0.61963125  0.17224273    -0.32640
C1722       C  0.50104540  0.61877066  0.20013157     0.36420
H1723       H  0.44497962  0.63405553  0.27942796     0.16790
O1724       O  0.38659401  0.63629068  0.23234571    -0.60130
H1725       H  0.47982001  0.61528770  0.14231873     0.16800
O1726       O  0.53828504  0.61115703  0.18945703    -0.60230
H1727       H  0.54733236  0.63464002  0.17608494     0.43800
H1728       H  0.37712538  0.61112491  0.24177483     0.43760
C1729       C  0.37205923  0.73970875  0.01139799    -0.05310
C1730       C  0.38072513  0.70181729  0.00094851    -0.32740
C1731       C  0.38201211  0.67319454  0.02877024     0.36510
C1732       C  0.37510032  0.68265591  0.06731700    -0.05660
C1733       C  0.36619732  0.72034920  0.07787260    -0.32640
C1734       C  0.36450844  0.74899880  0.05004317     0.36420
H1735       H  0.38694647  0.69457618  0.97129762     0.16790
O1736       O  0.39114857  0.63631842  0.01838921    -0.60130
H1737       H  0.36008300  0.72737361  0.10760310     0.16800
O1738       O  0.35394849  0.78555963  0.06043727    -0.60230
H1739       H  0.37624770  0.79614658  0.07474168     0.43800
H1740       H  0.36653269  0.62463693  0.00994790     0.43760
C1741       C  0.74151404  0.48716959  0.87074023    -0.05310
C1742       C  0.70442265  0.49562297  0.88374238    -0.32740
C1743       C  0.67621777  0.46752850  0.88298115     0.36510
C1744       C  0.68511254  0.43090400  0.86863978    -0.05660
C1745       C  0.72216460  0.42221704  0.85586031    -0.32640
C1746       C  0.75059442  0.45034595  0.85682450     0.36420
H1747       H  0.69755615  0.52389250  0.89488630     0.16790
O1748       O  0.64011022  0.47586004  0.89653026    -0.60130
H1749       H  0.72880833  0.39381072  0.84509977     0.16800
O1750       O  0.78660263  0.44225706  0.84285933    -0.60230
H1751       H  0.79948128  0.42722513  0.86337862     0.43800
H1752       H  0.64051001  0.46829009  0.92401069     0.43760
C1753       C  0.56307557  0.38112095  0.81908174    -0.05310
C1754       C  0.52485650  0.38896165  0.82880967    -0.32740
C1755       C  0.49640937  0.38787034  0.80059958     0.36510
C1756       C  0.50650806  0.37884706  0.76250420    -0.05660
C1757       C  0.54473673  0.37072482  0.75297775    -0.32640
C1758       C  0.57307959  0.37189466  0.78105121     0.36420
H1759       H  0.51724539  0.39621901  0.85811815     0.16790
O1760       O  0.45922243  0.39713452  0.81001798    -0.60130
H1761       H  0.55250353  0.36312927  0.72377614     0.16800
O1762       O  0.61022265  0.36247532  0.77155158    -0.60230
H1763       H  0.62095482  0.38572002  0.75904764     0.43800
H1764       H  0.44900559  0.37436357  0.82376723     0.43760
C1765       C  0.62390026  0.32026584  0.93335229    -0.05310
C1766       C  0.59902549  0.28864327  0.93045615    -0.32740
C1767       C  0.59691715  0.26114530  0.95935030     0.36510
C1768       C  0.62397507  0.26148429  0.98982144    -0.05660
C1769       C  0.64942012  0.29284661  0.99226105    -0.32640
C1770       C  0.64782629  0.32305501  0.96607198     0.36420
H1771       H  0.58011479  0.28493255  0.90610554     0.16790
O1772       O  0.56634166  0.23616437  0.95871826    -0.60130
H1773       H  0.67072064  0.29504227  0.01470604     0.16800
O1774       O  0.66778152  0.35607767  0.97443060    -0.60230
H1775       H  0.69538749  0.34878813  0.97459642     0.43800
H1776       H  0.56919430  0.22081397  0.93483409     0.43760
C1777       C  0.43207604  0.87264234  0.68159099    -0.05310
C1778       C  0.46665547  0.89175759  0.67429066    -0.32740
C1779       C  0.49512585  0.89270195  0.70231160     0.36510
C1780       C  0.48867554  0.87434070  0.73763468    -0.05660
C1781       C  0.45401205  0.85526969  0.74489506    -0.32640
C1782       C  0.42568641  0.85409028  0.71674690     0.36420
H1783       H  0.47132876  0.90609416  0.64703140     0.16790
O1784       O  0.52896971  0.91166895  0.69518633    -0.60130
H1785       H  0.44920465  0.84106275  0.77219321     0.16800
O1786       O  0.39181973  0.83517483  0.72378315    -0.60230
H1787       H  0.39614936  0.80854096  0.71463048     0.43800
H1788       H  0.52428091  0.93857830  0.70331110     0.43760
C1789       C  0.37476132  0.81706004  0.56539957    -0.05310
C1790       C  0.39219498  0.82499905  0.53009266    -0.32740
C1791       C  0.39303621  0.79695866  0.50158864     0.36510
C1792       C  0.37666730  0.76081180  0.50888389    -0.05660
C1793       C  0.35941321  0.75289324  0.54432565    -0.32640
C1794       C  0.35815135  0.78107770  0.57259523     0.36420
H1795       H  0.40526871  0.85277642  0.52483898     0.16790
O1796       O  0.41092179  0.80449149  0.46727147    -0.60130
H1797       H  0.34661784  0.72503077  0.54979380     0.16800
O1798       O  0.34100315  0.77328679  0.60721042    -0.60230
H1799       H  0.31390962  0.78170215  0.60420639     0.43800
H1800       H  0.39171343  0.81880916  0.45180111     0.43760
C1801       C  0.26023786  0.98896535  0.62422088    -0.05310
C1802       C  0.29915728  0.99959924  0.62497773    -0.32740
C1803       C  0.32780482  0.97170135  0.62546371     0.36510
C1804       C  0.31755326  0.93270530  0.62413425    -0.05660
C1805       C  0.27882145  0.92192731  0.62331295    -0.32640
C1806       C  0.25008277  0.94974474  0.62357388     0.36420
H1807       H  0.30742326  0.02961328  0.62489688     0.16790
O1808       O  0.36570463  0.98270911  0.62570365    -0.60130
H1809       H  0.27086048  0.89181277  0.62313107     0.16800
O1810       O  0.21229963  0.93836684  0.62521201    -0.60230
H1811       H  0.20678767  0.92633655  0.59994543     0.43800
H1812       H  0.37088900  0.99151605  0.65232432     0.43760
C1813       C  0.62353094  0.23982877  0.48920146    -0.05310
C1814       C  0.65578761  0.23636051  0.46547040    -0.32740
C1815       C  0.65664539  0.20833831  0.43702265     0.36510
C1816       C  0.62515163  0.18339189  0.43277832    -0.05660
C1817       C  0.59285221  0.18696541  0.45655510    -0.32640
C1818       C  0.59200271  0.21505359  0.48494796     0.36420
H1819       H  0.68008339  0.25557577  0.46891199     0.16790
O1820       O  0.68803739  0.20573201  0.41328073    -0.60130
H1821       H  0.56856879  0.16769777  0.45329269     0.16800
O1822       O  0.56053927  0.21802612  0.50854322    -0.60230
H1823       H  0.56634902  0.20124597  0.53084198     0.43800
H1824       H  0.68159069  0.22178330  0.39062397     0.43760
C1825       C  0.51246769  0.12694045  0.25922572    -0.05310
C1826       C  0.50218140  0.11797351  0.29710697    -0.32740
C1827       C  0.52985095  0.11804189  0.32589088     0.36510
C1828       C  0.56810611  0.12658985  0.31658692    -0.05660
C1829       C  0.57857052  0.13550680  0.27886324    -0.32640
C1830       C  0.55084875  0.13585217  0.25003382     0.36420
H1831       H  0.47272651  0.11068978  0.30425632     0.16790
O1832       O  0.51966686  0.10858730  0.36275225    -0.60130
H1833       H  0.60813141  0.14259709  0.27195528     0.16800
O1834       O  0.56100810  0.14655398  0.21345308    -0.60230
H1835       H  0.57583623  0.12459223  0.20293692     0.43800
H1836       H  0.51024727  0.13285181  0.37436114     0.43760
C1837       C  0.74036211  0.01149031  0.37505646    -0.05310
C1838       C  0.70140529  0.00103742  0.37538733    -0.32740
C1839       C  0.67292249  0.02905405  0.37446190     0.36510
C1840       C  0.68342079  0.06800207  0.37410587    -0.05660
C1841       C  0.72219729  0.07861788  0.37391967    -0.32640
C1842       C  0.75077054  0.05062797  0.37418719     0.36420
H1843       H  0.69300932  0.97108443  0.37667994     0.16790
O1844       O  0.63496620  0.01827778  0.37549407    -0.60130
H1845       H  0.73028567  0.10868345  0.37297611     0.16800
O1846       O  0.78860251  0.06166251  0.37164680    -0.60230
H1847       H  0.79460880  0.07428226  0.39650905     0.43800
H1848       H  0.62902291  0.00890308  0.34922903     0.43760
C1849       C  0.68354718  0.56794244  0.62429500    -0.05310
C1850       C  0.67236188  0.52957355  0.62040566    -0.32740
C1851       C  0.69995880  0.50062257  0.61969813     0.36510
C1852       C  0.73916951  0.51023411  0.62337327    -0.05660
C1853       C  0.75019864  0.54879914  0.62722458    -0.32640
C1854       C  0.72259533  0.57771286  0.62728761     0.36420
H1855       H  0.64221983  0.52217122  0.61735699     0.16790
O1856       O  0.68861573  0.46333500  0.61357020    -0.60130
H1857       H  0.78023225  0.55647380  0.63053528     0.16800
O1858       O  0.73377496  0.61526629  0.63169366    -0.60230
H1859       H  0.74272125  0.62352609  0.60592657     0.43800
H1860       H  0.67493629  0.45549405  0.63732284     0.43760
C1861       C  0.62584428  0.68447953  0.56755024    -0.05310
C1862       C  0.59138356  0.69244624  0.54816201    -0.32740
C1863       C  0.59035326  0.72033068  0.51954769     0.36510
C1864       C  0.62422339  0.73999646  0.50982182    -0.05660
C1865       C  0.65866560  0.73212010  0.52907862    -0.32640
C1866       C  0.65966956  0.70455243  0.55801388     0.36420
H1867       H  0.56534215  0.67674152  0.55496563     0.16790
O1868       O  0.55661549  0.72723461  0.50024193    -0.60130
H1869       H  0.68464990  0.74781165  0.52201475     0.16800
O1870       O  0.69321059  0.69866498  0.57803204    -0.60230
H1871       H  0.71074511  0.68540760  0.55986947     0.43800
H1872       H  0.54112508  0.74357500  0.51772705     0.43760
C1873       C  0.56825011  0.62576041  0.68352757    -0.05310
C1874       C  0.52966138  0.62414010  0.67220918    -0.32740
C1875       C  0.50056095  0.62372291  0.69967980     0.36510
C1876       C  0.51020169  0.62531260  0.73898750    -0.05660
C1877       C  0.54895798  0.62703864  0.75015976    -0.32640
C1878       C  0.57800058  0.62684234  0.72266349     0.36420
H1879       H  0.52215534  0.62259976  0.64199872     0.16790
O1880       O  0.46302581  0.61981587  0.68801445    -0.60130
H1881       H  0.55673085  0.62882483  0.78027504     0.16800
O1882       O  0.61571226  0.62918494  0.73411241    -0.60230
H1883       H  0.62247390  0.60306041  0.74327939     0.43800
H1884       H  0.45631764  0.64447172  0.67537184     0.43760
C1885       C  0.26145308  0.49046599  0.37556169    -0.05310
C1886       C  0.25046533  0.45183890  0.37217660    -0.32740
C1887       C  0.27805092  0.42287909  0.37270991     0.36510
C1888       C  0.31709557  0.43260705  0.37599851    -0.05660
C1889       C  0.32823748  0.47109929  0.37921528    -0.32640
C1890       C  0.30063340  0.50011289  0.37915469     0.36420
H1891       H  0.22043491  0.44414189  0.36887287     0.16790
O1892       O  0.26685730  0.38530589  0.36853064    -0.60130
H1893       H  0.35835867  0.47856646  0.38228755     0.16800
O1894       O  0.31193629  0.53752213  0.38450202    -0.60230
H1895       H  0.32496924  0.54507402  0.36030026     0.43800
H1896       H  0.25700996  0.37748998  0.39410609     0.43760
C1897       C  0.37428582  0.31577081  0.43276716    -0.05310
C1898       C  0.37852993  0.32677824  0.47120813    -0.32740
C1899       C  0.37893022  0.29915413  0.50013713     0.36510
C1900       C  0.37471013  0.26010695  0.49046062    -0.05660
C1901       C  0.37041443  0.24922533  0.45187790    -0.32640
C1902       C  0.37055202  0.27684473  0.42297376     0.36420
H1903       H  0.38211762  0.35680390  0.47868061     0.16790
O1904       O  0.38533641  0.31027395  0.53745383    -0.60130
H1905       H  0.36671606  0.21927636  0.44419339     0.16800
O1906       O  0.36570359  0.26581583  0.38542322    -0.60230
H1907       H  0.39111402  0.25583749  0.37716927     0.43800
H1908       H  0.36145293  0.32354750  0.54564165     0.43760
C1909       C  0.48883991  0.37629737  0.25989306    -0.05310
C1910       C  0.49971558  0.37544884  0.29874427    -0.32740
C1911       C  0.47199376  0.37416288  0.32753267     0.36510
C1912       C  0.43286009  0.37476892  0.31755450    -0.05660
C1913       C  0.42182488  0.37595841  0.27889447    -0.32640
C1914       C  0.44950543  0.37653578  0.24999362     0.36420
H1915       H  0.52981577  0.37590548  0.30685351     0.16790
O1916       O  0.48329194  0.37381273  0.36532584    -0.60130
H1917       H  0.39162202  0.37576200  0.27110787     0.16800
O1918       O  0.43789779  0.37520312  0.21229528    -0.60230
H1919       H  0.42592206  0.40054872  0.20707067     0.43800
H1920       H  0.49252713  0.34729455  0.37023054     0.43760
loop_ 
_geom_bond_atom_site_label_1 
_geom_bond_atom_site_label_2 
_geom_bond_distance 
_geom_bond_site_symmetry_2 
_ccdc_geom_bond_type 
O1           Mg3   2.180       .  S
O1           Mg9   2.168       .  S
O1           C36   1.234       .  S
C2           O15   1.234       .  S
C2           O39   1.271       .  A
C2           H41   1.080       .  S
Mg3          O32   2.166       .  S
Mg3          O47   2.300       .  S
Mg3          O43   2.302       .  S
Mg3          O14   2.312       .  S
O4          Mg46   2.168       .  S
O4          Mg29   2.181       .  S
O4           C25   1.234       .  S
O5           C36   1.271       .  A
O5          Mg29   2.313       .  S
C6            O8   1.273       .  A
C6           O20   1.274       .  A
C6         C1021   1.477       .  S
O7           C35   1.270       .  A
O7           Mg9   2.311       .  S
O8          Mg40   2.300       .  S
Mg9          O15   2.180       .  S
Mg9          O23   2.300       .  S
Mg9          O11   2.297       .  S
C10          O48   1.273       .  A
C10          O16   1.274       .  A
C10         C459   1.479       .  S
O11          C18   1.274       .  A
H12          C25   1.081       .  S
C13          O27   1.234       .  S
C13          O28   1.270       .  A
C13          H38   1.081       .  S
O14          C37   1.271       .  A
O15         Mg29   2.164       .  S
O16         Mg46   2.303       .  S
C17          O30   1.273       .  A
C17          O22   1.274       .  A
C17         C297   1.478       .  S
C18          O45   1.273       .  A
C18         C624   1.478       .  S
Mg19         O26   2.180       .  S
Mg19         O27   2.169       .  S
Mg19         O20   2.300       .  S
Mg19         O21   2.312       .  S
Mg19         O48   2.302       .  S
O21          C25   1.271       .  A
O22         Mg29   2.300       .  S
O23          C42   1.273       .  A
O24          C44   1.274       .  A
O24         Mg40   2.300       .  S
O26         Mg40   2.168       .  S
O26          C37   1.234       .  S
O27         Mg46   2.178       .  S
O28         Mg40   2.310       .  S
Mg29         O45   2.303       .  S
O30         Mg46   2.302       .  S
H31          C36   1.081       .  S
O32         Mg40   2.178       .  S
O32          C35   1.234       .  S
H33          C35   1.081       .  S
H34          C37   1.081       .  S
O39         Mg46   2.312       .  S
C42          O47   1.274       .  A
C42        C1252   1.478       .  S
O43          C44   1.273       .  A
C44        C1288   1.478       .  S
O49         Mg51   2.174       .  S
O49         Mg57   2.182       .  S
O49          C84   1.232       .  S
C50          O63   1.233       .  S
C50          O87   1.267       .  A
C50          H89   1.081       .  S
Mg51         O80   2.185       .  S
Mg51         O95   2.313       .  S
Mg51         O91   2.279       .  S
Mg51         O62   2.294       .  S
O52         Mg94   2.184       .  S
O52         Mg77   2.173       .  S
O52          C73   1.233       .  S
O53          C84   1.267       .  A
O53         Mg77   2.296       .  S
C54          O56   1.277       .  A
C54          O68   1.275       .  A
C54        C1279   1.484       .  S
O55          C83   1.268       .  A
O55         Mg57   2.297       .  S
O56         Mg88   2.284       .  S
Mg57         O63   2.173       .  S
Mg57         O71   2.281       .  S
Mg57         O59   2.320       .  S
C58          O96   1.276       .  A
C58          O64   1.275       .  A
C58        C1086   1.482       .  S
O59          C66   1.275       .  A
H60          C73   1.080       .  S
C61          O75   1.232       .  S
C61          O76   1.267       .  A
C61          H86   1.080       .  S
O62          C85   1.267       .  A
O63         Mg77   2.186       .  S
O64         Mg94   2.313       .  S
C65          O78   1.276       .  A
C65          O70   1.275       .  A
C65         C486   1.483       .  S
C66          O93   1.277       .  A
C66         C306   1.484       .  S
Mg67         O74   2.171       .  S
Mg67         O75   2.184       .  S
Mg67         O68   2.315       .  S
Mg67         O69   2.296       .  S
Mg67         O96   2.280       .  S
O69          C73   1.268       .  A
O70         Mg77   2.316       .  S
O71          C90   1.277       .  A
O72          C92   1.275       .  A
O72         Mg88   2.316       .  S
O74         Mg88   2.187       .  S
O74          C85   1.233       .  S
O75         Mg94   2.173       .  S
O76         Mg88   2.295       .  S
Mg77         O93   2.282       .  S
O78         Mg94   2.282       .  S
H79          C84   1.080       .  S
O80         Mg88   2.175       .  S
O80          C83   1.233       .  S
H81          C83   1.081       .  S
H82          C85   1.081       .  S
O87         Mg94   2.295       .  S
C90          O95   1.274       .  A
C90        C1145   1.484       .  S
O91          C92   1.276       .  A
C92        C1236   1.483       .  S
O97         Mg99   2.171       .  S
O97        Mg105   2.187       .  S
O97         C132   1.233       .  S
C98         O111   1.232       .  S
C98         O135   1.267       .  A
C98         H137   1.081       .  S
Mg99        O128   2.182       .  S
Mg99        O143   2.316       .  S
Mg99        O139   2.277       .  S
Mg99        O110   2.296       .  S
O100       Mg142   2.184       .  S
O100       Mg125   2.167       .  S
O100        C121   1.233       .  S
O101        C132   1.267       .  A
O101       Mg125   2.294       .  S
C102        O104   1.276       .  A
C102        O116   1.275       .  A
C102        C967   1.482       .  S
O103        C131   1.267       .  A
O103       Mg105   2.294       .  S
O104       Mg136   2.283       .  S
Mg105       O111   2.174       .  S
Mg105       O119   2.285       .  S
Mg105       O107   2.312       .  S
C106        O144   1.276       .  A
C106        O112   1.273       .  A
C106        C608   1.480       .  S
O107        C114   1.275       .  A
H108        C121   1.081       .  S
C109        O123   1.233       .  S
C109        O124   1.268       .  A
C109        H134   1.081       .  S
O110        C133   1.267       .  A
O111       Mg125   2.189       .  S
O112       Mg142   2.303       .  S
C113        O126   1.276       .  A
C113        O118   1.273       .  A
C113        C883   1.484       .  S
C114        O141   1.274       .  A
C114       C1003   1.481       .  S
Mg115       O122   2.172       .  S
Mg115       O123   2.186       .  S
Mg115       O116   2.311       .  S
Mg115       O117   2.295       .  S
Mg115       O144   2.282       .  S
O117        C121   1.267       .  A
O118       Mg125   2.305       .  S
O119        C138   1.277       .  A
O120        C140   1.275       .  A
O120       Mg136   2.316       .  S
O122       Mg136   2.184       .  S
O122        C133   1.233       .  S
O123       Mg142   2.174       .  S
O124       Mg136   2.297       .  S
Mg125       O141   2.264       .  S
O126       Mg142   2.285       .  S
H127        C132   1.081       .  S
O128       Mg136   2.171       .  S
O128        C131   1.232       .  S
H129        C131   1.080       .  S
H130        C133   1.081       .  S
O135       Mg142   2.295       .  S
C138        O143   1.275       .  A
C138        C717   1.485       .  S
O139        C140   1.276       .  A
C140        C511   1.483       .  S
C145        C322   1.478       .  S
C145        C146   1.392       .  A
C145        C150   1.418       .  A
C146        H151   1.083       .  S
C146        C147   1.400       .  A
C147       C1909   1.470       .  S
C147        C148   1.401       .  A
C148        H152   1.084       .  S
C148        C149   1.392       .  A
C149        C834   1.479       .  S
C149        C150   1.418       .  A
C150        H153   1.083       .  S
C154        C812   1.478       .  S
C154        C155   1.393       .  A
C154        C159   1.418       .  A
C155        H160   1.084       .  S
C155        C156   1.398       .  A
C156       C1900   1.465       .  S
C156        C157   1.399       .  A
C157        H161   1.085       .  S
C157        C158   1.393       .  A
C158        C238   1.478       .  S
C158        C159   1.418       .  A
C159        H162   1.083       .  S
C163       C1912   1.460       .  S
C163        C164   1.396       .  A
C163        C168   1.396       .  A
C164        H169   1.084       .  S
C164        C165   1.395       .  A
C165       C1897   1.456       .  S
C165        C166   1.395       .  A
C166        H170   1.084       .  S
C166        C167   1.395       .  A
C167       C1888   1.458       .  S
C167        C168   1.395       .  A
C168        H171   1.085       .  S
C172        C190   1.480       .  S
C172        C173   1.419       .  A
C172        C177   1.393       .  A
C173        H178   1.083       .  S
C173        C174   1.419       .  A
C174        C944   1.480       .  S
C174        C175   1.393       .  A
C175        H179   1.084       .  S
C175        C176   1.399       .  A
C176       C1885   1.466       .  S
C176        C177   1.399       .  A
C177        H180   1.085       .  S
O181       Mg183   2.182       .  S
O181       Mg189   2.161       .  S
O181        C216   1.233       .  S
C182        O195   1.234       .  S
C182        O219   1.270       .  A
C182        H221   1.081       .  S
Mg183       O212   2.167       .  S
Mg183       O227   2.301       .  S
Mg183       O223   2.307       .  S
Mg183       O194   2.311   1_655  S
O184       Mg226   2.172       .  S
O184       Mg209   2.181       .  S
O184        C205   1.234       .  S
O185        C216   1.270       .  A
O185       Mg209   2.311   1_655  S
C186        O188   1.273       .  A
C186        O200   1.273       .  A
C186       C1048   1.476       .  S
O187        C215   1.271       .  A
O187       Mg189   2.312       .  S
O188       Mg220   2.300   1_455  S
Mg189       O195   2.182       .  S
Mg189       O203   2.305       .  S
Mg189       O191   2.301       .  S
C190        O228   1.273       .  A
C190        O196   1.274       .  A
O191        C198   1.274       .  A
H192        C205   1.081       .  S
C193        O207   1.234       .  S
C193        O208   1.271       .  A
C193        H218   1.081       .  S
O194        C217   1.270       .  A
O195       Mg209   2.170   1_655  S
O196       Mg226   2.300       .  S
C197        O210   1.272       .  A
C197        O202   1.275       .  A
C197       C1243   1.477       .  S
C198        O225   1.274       .  A
C198        C726   1.479       .  S
Mg199       O206   2.182       .  S
Mg199       O207   2.166       .  S
Mg199       O200   2.295       .  S
Mg199       O201   2.311       .  S
Mg199       O228   2.306       .  S
O201        C205   1.271       .  A
O202       Mg209   2.302       .  S
O203        C222   1.273       .  A
O204        C224   1.275       .  A
O204       Mg220   2.308       .  S
O206       Mg220   2.171   1_455  S
O206        C217   1.234       .  S
O207       Mg226   2.177       .  S
O208       Mg220   2.312   1_455  S
Mg209       O225   2.306   1_455  S
O210       Mg226   2.297       .  S
H211        C216   1.077       .  S
O212       Mg220   2.179       .  S
O212        C215   1.235       .  S
H213        C215   1.081       .  S
H214        C217   1.081       .  S
O219       Mg226   2.311   1_655  S
C222        O227   1.274       .  A
C222        C304   1.479       .  S
O223        C224   1.274       .  A
C224        C887   1.481       .  S
O229       Mg231   2.178       .  S
O229       Mg237   2.165       .  S
O229        C264   1.234       .  S
C230        O243   1.234       .  S
C230        O267   1.270       .  A
C230        H269   1.081       .  S
Mg231       O260   2.168       .  S
Mg231       O275   2.297       .  S
Mg231       O271   2.301       .  S
Mg231       O242   2.310   1_565  S
O232       Mg274   2.164       .  S
O232       Mg257   2.179       .  S
O232        C253   1.233       .  S
O233        C264   1.271       .  A
O233       Mg257   2.312   1_565  S
C234        O236   1.272       .  A
C234        O248   1.274       .  A
C234       C1084   1.475       .  S
O235        C263   1.271       .  A
O235       Mg237   2.311       .  S
O236       Mg268   2.295   1_545  S
Mg237       O243   2.179       .  S
Mg237       O251   2.297       .  S
Mg237       O239   2.295       .  S
C238        O276   1.273       .  A
C238        O244   1.274       .  A
O239        C246   1.273       .  A
H240        C253   1.079       .  S
C241        O255   1.234       .  S
C241        O256   1.271       .  A
C241        H266   1.080       .  S
O242        C265   1.270       .  A
O243       Mg257   2.167   1_565  S
O244       Mg274   2.300       .  S
C245        O258   1.273       .  A
C245        O250   1.275       .  A
C245       C1041   1.480       .  S
C246        O273   1.273       .  A
C246        C978   1.477       .  S
Mg247       O254   2.180       .  S
Mg247       O255   2.168       .  S
Mg247       O248   2.298       .  S
Mg247       O249   2.310       .  S
Mg247       O276   2.302       .  S
O249        C253   1.270       .  A
O250       Mg257   2.304       .  S
O251        C270   1.272       .  A
O252        C272   1.274       .  A
O252       Mg268   2.304       .  S
O254       Mg268   2.170   1_545  S
O254        C265   1.234       .  S
O255       Mg274   2.181       .  S
O256       Mg268   2.312   1_545  S
Mg257       O273   2.303   1_545  S
O258       Mg274   2.304       .  S
H259        C264   1.081       .  S
O260       Mg268   2.176       .  S
O260        C263   1.235       .  S
H261        C263   1.081       .  S
H262        C265   1.081       .  S
O267       Mg274   2.312   1_565  S
C270        O275   1.273       .  A
C270        C295   1.476       .  S
O271        C272   1.273       .  A
C272        C715   1.479       .  S
C277       C1873   1.458       .  S
C277        C278   1.395       .  A
C277        C282   1.396       .  A
C278        H283   1.084       .  S
C278        C279   1.394       .  A
C279       C1849   1.454       .  S
C279        C280   1.393       .  A
C280        H284   1.084       .  S
C280        C281   1.395       .  A
C281       C1861   1.462       .  S
C281        C282   1.398       .  A
C282        H285   1.084       .  S
C286       C1313   1.478       .  S
C286        C287   1.418       .  A
C286        C291   1.392       .  A
C287        H292   1.083       .  S
C287        C288   1.418       .  A
C288        C354   1.479       .  S
C288        C289   1.393       .  A
C289        H293   1.085       .  S
C289        C290   1.400       .  A
C290       C1876   1.467       .  S
C290        C291   1.399       .  A
C291        H294   1.084       .  S
C295        C296   1.419       .  A
C295        C300   1.391       .  A
C296        H301   1.083       .  S
C296        C297   1.419       .  A
C297        C298   1.393       .  A
C298        H302   1.085       .  S
C298        C299   1.396       .  A
C299       C1864   1.456       .  S
C299        C300   1.395       .  A
C300        H303   1.085       .  S
C304        C305   1.421       .  A
C304        C309   1.392       .  A
C305        H310   1.083       .  S
C305        C306   1.421       .  A
C306        C307   1.393       .  A
C307        H311   1.084       .  S
C307        C308   1.396       .  A
C308       C1852   1.465       .  S
C308        C309   1.398       .  A
C309        H312   1.085       .  S
O313       Mg315   2.179       .  S
O313       Mg321   2.166       .  S
O313        C348   1.233       .  S
C314        O327   1.234       .  S
C314        O351   1.271       .  A
C314        H353   1.081       .  S
Mg315       O344   2.164       .  S
Mg315       O359   2.301       .  S
Mg315       O355   2.305       .  S
Mg315       O326   2.312   1_556  S
O316       Mg358   2.167       .  S
O316       Mg341   2.179       .  S
O316        C337   1.233       .  S
O317        C348   1.270       .  A
O317       Mg341   2.309   1_556  S
C318        O320   1.272       .  A
C318        O332   1.274       .  A
C318       C1254   1.477       .  S
O319        C347   1.270       .  A
O319       Mg321   2.310       .  S
O320       Mg352   2.298   1_554  S
Mg321       O327   2.182       .  S
Mg321       O335   2.306       .  S
Mg321       O323   2.299       .  S
C322        O360   1.273       .  A
C322        O328   1.274       .  A
O323        C330   1.274       .  A
H324        C337   1.080       .  S
C325        O339   1.235       .  S
C325        O340   1.271       .  A
C325        H350   1.081       .  S
O326        C349   1.271       .  A
O327       Mg341   2.170   1_556  S
O328       Mg358   2.301       .  S
C329        O342   1.273       .  A
C329        O334   1.274       .  A
C329       C1075   1.479       .  S
C330        O357   1.273       .  A
C330        C894   1.477       .  S
Mg331       O338   2.180       .  S
Mg331       O339   2.173       .  S
Mg331       O332   2.298       .  S
Mg331       O333   2.308       .  S
Mg331       O360   2.303       .  S
O333        C337   1.270       .  A
O334       Mg341   2.302       .  S
O335        C354   1.274       .  A
O336        C356   1.274       .  A
O336       Mg352   2.298       .  S
O338       Mg352   2.168   1_554  S
O338        C349   1.234       .  S
O339       Mg358   2.179       .  S
O340       Mg352   2.310   1_554  S
Mg341       O357   2.300   1_554  S
O342       Mg358   2.304       .  S
H343        C348   1.079       .  S
O344       Mg352   2.178       .  S
O344        C347   1.234       .  S
H345        C347   1.080       .  S
H346        C349   1.081       .  S
O351       Mg358   2.312   1_556  S
C354        O359   1.274       .  A
O355        C356   1.273       .  A
C356        C969   1.478       .  S
O361       Mg363   2.181       .  S
O361       Mg369   2.168       .  S
O361        C396   1.234       .  S
C362        O375   1.234       .  S
C362        O399   1.270       .  A
C362        H401   1.081       .  S
Mg363       O392   2.168       .  S
Mg363       O407   2.301       .  S
Mg363       O403   2.305       .  S
Mg363       O374   2.311       .  S
O364       Mg406   2.169       .  S
O364       Mg389   2.179       .  S
O364        C385   1.234       .  S
O365        C396   1.270       .  A
O365       Mg389   2.310       .  S
C366        O368   1.273       .  A
C366        O380   1.274       .  A
C366        C522   1.479       .  S
O367        C395   1.271       .  A
O367       Mg369   2.313       .  S
O368       Mg400   2.302       .  S
Mg369       O375   2.178       .  S
Mg369       O383   2.299       .  S
Mg369       O371   2.302       .  S
C370        O408   1.272       .  A
C370        O376   1.274       .  A
C370       C1170   1.476       .  S
O371        C378   1.274       .  A
H372        C385   1.081       .  S
C373        O387   1.234       .  S
C373        O388   1.270       .  A
C373        H398   1.081       .  S
O374        C397   1.270       .  A
O375       Mg389   2.171       .  S
O376       Mg406   2.298       .  S
C377        O390   1.273       .  A
C377        O382   1.274       .  A
C377        C595   1.478       .  S
C378        O405   1.273       .  A
C378        C484   1.478       .  S
Mg379       O386   2.179       .  S
Mg379       O387   2.167       .  S
Mg379       O380   2.302       .  S
Mg379       O381   2.313       .  S
Mg379       O408   2.297       .  S
O381        C385   1.271       .  A
O382       Mg389   2.299       .  S
O383        C402   1.273       .  A
O384        C404   1.274       .  A
O384       Mg400   2.304       .  S
O386       Mg400   2.168       .  S
O386        C397   1.234       .  S
O387       Mg406   2.182       .  S
O388       Mg400   2.312       .  S
Mg389       O405   2.301       .  S
O390       Mg406   2.301       .  S
H391        C396   1.080       .  S
O392       Mg400   2.181       .  S
O392        C395   1.234       .  S
H393        C395   1.081       .  S
H394        C397   1.081       .  S
O399       Mg406   2.309       .  S
C402        O407   1.274       .  A
C402       C1012   1.478       .  S
O403        C404   1.274       .  A
C404        C622   1.480       .  S
O409       Mg411   2.170       .  S
O409       Mg417   2.185   1_554  S
O409        C444   1.233       .  S
C410        O423   1.232       .  S
C410        O447   1.267   1_455  A
C410        H449   1.081       .  S
Mg411       O440   2.186   1_455  S
Mg411       O455   2.312       .  S
Mg411       O451   2.277       .  S
Mg411       O422   2.296   1_565  S
O412       Mg454   2.184   1_455  S
O412       Mg437   2.171       .  S
O412        C433   1.234       .  S
O413        C444   1.268   1_545  A
O413       Mg437   2.296   1_554  S
C414        O416   1.276   1_545  A
C414        O428   1.275       .  A
C414        C949   1.484       .  S
O415        C443   1.267   1_556  A
O415       Mg417   2.295   1_655  S
O416       Mg448   2.280       .  S
Mg417       O423   2.169       .  S
Mg417       O431   2.277       .  S
Mg417       O419   2.310       .  S
C418        O456   1.277   1_556  A
C418        O424   1.275       .  A
C418       C1234   1.483       .  S
O419        C426   1.274       .  A
H420        C433   1.081       .  S
C421        O435   1.231       .  S
C421        O436   1.267   1_545  A
C421        H446   1.078       .  S
O422        C445   1.267   1_455  A
O423       Mg437   2.184   1_565  S
O424       Mg454   2.314       .  S
C425        O438   1.277   1_455  A
C425        O430   1.275       .  A
C425        C706   1.484       .  S
C426        O453   1.276   1_565  A
C426       C1057   1.480       .  S
Mg427       O434   2.173       .  S
Mg427       O435   2.179   1_554  S
Mg427       O428   2.319       .  S
Mg427       O429   2.296   1_655  S
Mg427       O456   2.279       .  S
O429        C433   1.268   1_554  A
O430       Mg437   2.317       .  S
O431        C450   1.276   1_556  A
O432        C452   1.275       .  A
O432       Mg448   2.316       .  S
O434       Mg448   2.187   1_545  S
O434        C445   1.233       .  S
O435       Mg454   2.174       .  S
O436       Mg448   2.295   1_556  S
Mg437       O453   2.276       .  S
O438       Mg454   2.284       .  S
H439        C444   1.081       .  S
O440       Mg448   2.172       .  S
O440        C443   1.233       .  S
H441        C443   1.081       .  S
H442        C445   1.081       .  S
O447       Mg454   2.293   1_565  S
C450        O455   1.274       .  A
C450        C867   1.481       .  S
O451        C452   1.276   1_455  A
C452       C1023   1.483       .  S
C457       C1102   1.476       .  S
C457        C458   1.418       .  A
C457        C462   1.390       .  A
C458        H463   1.083       .  S
C458        C459   1.418       .  A
C459        C460   1.393       .  A
C460        H464   1.084       .  S
C460        C461   1.400       .  A
C461       C1837   1.466   1_565  S
C461        C462   1.397       .  A
C462        H465   1.084   1_565  S
C466       C1816   1.454       .  S
C466        C467   1.395       .  A
C466        C471   1.393       .  A
C467        H472   1.085       .  S
C467        C468   1.396       .  A
C468       C1840   1.456       .  S
C468        C469   1.394       .  A
C469        H473   1.084       .  S
C469        C470   1.392       .  A
C470       C1828   1.448       .  S
C470        C471   1.392       .  A
C471        H474   1.085       .  S
C475        C534   1.485       .  S
C475        C476   1.393       .  A
C475        C480   1.423       .  A
C476        H481   1.085       .  S
C476        C477   1.393       .  A
C477       C1825   1.458       .  S
C477        C478   1.393       .  A
C478        H482   1.085       .  S
C478        C479   1.393       .  A
C479       C1193   1.484       .  S
C479        C480   1.423       .  A
C480        H483   1.083       .  S
C484        C485   1.422       .  A
C484        C489   1.392       .  A
C485        H490   1.083       .  S
C485        C486   1.422       .  A
C486        C487   1.393       .  A
C487        H491   1.085       .  S
C487        C488   1.392       .  A
C488       C1813   1.450       .  S
C488        C489   1.393       .  A
C489        H492   1.085       .  S
C493        C810   1.480       .  S
C493        C494   1.393       .  A
C493        C498   1.418       .  A
C494        H499   1.084       .  S
C494        C495   1.401       .  A
C495       C1801   1.468   1_545  S
C495        C496   1.398       .  A
C496        H500   1.084   1_545  S
C496        C497   1.390       .  A
C497       C1134   1.476       .  S
C497        C498   1.418       .  A
C498        H501   1.083       .  S
C502       C1789   1.448       .  S
C502        C503   1.394       .  A
C502        C507   1.392       .  A
C503        H508   1.084       .  S
C503        C504   1.397       .  A
C504       C1804   1.458       .  S
C504        C505   1.395       .  A
C505        H509   1.084       .  S
C505        C506   1.392       .  A
C506       C1777   1.444       .  S
C506        C507   1.391       .  A
C507        H510   1.085       .  S
C511        C512   1.393       .  A
C511        C516   1.422       .  A
C512        H517   1.085       .  S
C512        C513   1.390       .  A
C513       C1780   1.448       .  S
C513        C514   1.390       .  A
C514        H518   1.085       .  S
C514        C515   1.393       .  A
C515        C546   1.482       .  S
C515        C516   1.423       .  A
C516        H519   1.083       .  S
C520        C906   1.478       .  S
C520        C521   1.420       .  A
C520        C525   1.392       .  A
C521        H526   1.083       .  S
C521        C522   1.420       .  A
C522        C523   1.393       .  A
C523        H527   1.085       .  S
C523        C524   1.395       .  A
C524       C1792   1.452       .  S
C524        C525   1.394       .  A
C525        H528   1.085       .  S
O529       Mg531   2.167       .  S
O529       Mg537   2.185   1_545  S
O529        C564   1.233       .  S
C530        O543   1.232       .  S
C530        O567   1.267   1_556  A
C530        H569   1.081       .  S
Mg531       O560   2.186   1_556  S
Mg531       O575   2.310       .  S
Mg531       O571   2.266       .  S
Mg531       O542   2.298       .  S
O532       Mg574   2.183   1_556  S
O532       Mg557   2.173       .  S
O532        C553   1.233       .  S
O533        C564   1.267       .  A
O533       Mg557   2.296   1_545  S
C534        O536   1.278       .  A
C534        O548   1.275       .  A
O535        C563   1.267   1_566  A
O535       Mg537   2.296       .  S
O536       Mg568   2.286       .  S
Mg537       O543   2.167       .  S
Mg537       O551   2.277       .  S
Mg537       O539   2.305       .  S
C538        O576   1.277   1_565  A
C538        O544   1.274       .  A
C538        C760   1.483       .  S
O539        C546   1.273       .  A
H540        C553   1.080       .  S
C541        O555   1.231       .  S
C541        O556   1.266       .  A
C541        H566   1.079       .  S
O542        C565   1.268   1_556  A
O543       Mg557   2.183       .  S
O544       Mg574   2.308       .  S
C545        O558   1.276   1_556  A
C545        O550   1.274       .  A
C545        C615   1.481       .  S
C546        O573   1.276       .  A
Mg547       O554   2.177       .  S
Mg547       O555   2.181   1_545  S
Mg547       O548   2.317       .  S
Mg547       O549   2.295   1_554  S
Mg547       O576   2.290       .  S
O549        C553   1.267   1_545  A
O550       Mg557   2.309       .  S
O551        C570   1.276   1_565  A
O552        C572   1.275       .  A
O552       Mg568   2.312       .  S
O554       Mg568   2.189       .  S
O554        C565   1.233       .  S
O555       Mg574   2.167       .  S
O556       Mg568   2.292   1_565  S
Mg557       O573   2.281       .  S
O558       Mg574   2.277       .  S
H559        C564   1.081       .  S
O560       Mg568   2.177       .  S
O560        C563   1.232       .  S
H561        C563   1.080       .  S
H562        C565   1.081       .  S
O567       Mg574   2.294       .  S
C570        O575   1.273       .  A
C570       C1281   1.483       .  S
O571        C572   1.274   1_556  A
C572        C579   1.483       .  S
C577        C833   1.477       .  S
C577        C578   1.413       .  A
C577        C582   1.395       .  A
C578        H583   1.083       .  S
C578        C579   1.413       .  A
C579        C580   1.393       .  A
C580        H584   1.077   1_554  S
C580        C581   1.403       .  A
C581       C1768   1.495   1_554  S
C581        C582   1.409       .  A
C582        H585   1.079       .  S
C586       C1753   1.454       .  S
C586        C587   1.395       .  A
C586        C591   1.387       .  A
C587        H592   1.080       .  S
C587        C588   1.410       .  A
C588       C1765   1.488       .  S
C588        C589   1.404       .  A
C589        H593   1.079       .  S
C589        C590   1.391       .  A
C590       C1744   1.446       .  S
C590        C591   1.386       .  A
C591        H594   1.085       .  S
C595        C596   1.391       .  A
C595        C600   1.419       .  A
C596        H601   1.085       .  S
C596        C597   1.397       .  A
C597       C1756   1.457       .  S
C597        C598   1.395       .  A
C598        H602   1.085       .  S
C598        C599   1.392       .  A
C599        C774   1.477       .  S
C599        C600   1.419       .  A
C600        H603   1.083       .  S
C604        C658   1.482       .  S
C604        C605   1.394       .  A
C604        C609   1.422       .  A
C605        H610   1.085       .  S
C605        C606   1.390       .  A
C606       C1741   1.451       .  S
C606        C607   1.391       .  A
C607        H611   1.085       .  S
C607        C608   1.392       .  A
C608        C609   1.422       .  A
C609        H612   1.083       .  S
C613       C1306   1.477       .  S
C613        C614   1.419       .  A
C613        C618   1.393       .  A
C614        H619   1.083       .  S
C614        C615   1.419       .  A
C615        C616   1.392       .  A
C616        H620   1.085   1_556  S
C616        C617   1.395       .  A
C617       C1729   1.460   1_556  S
C617        C618   1.397       .  A
C618        H621   1.085       .  S
C622        C623   1.419       .  A
C622        C627   1.393       .  A
C623        H628   1.083       .  S
C623        C624   1.419       .  A
C624        C625   1.391       .  A
C625        H629   1.084       .  S
C625        C626   1.397       .  A
C626       C1717   1.462       .  S
C626        C627   1.399       .  A
C627        H630   1.085       .  S
C631       C1732   1.451       .  S
C631        C632   1.395       .  A
C631        C636   1.393       .  A
C632        H637   1.084       .  S
C632        C633   1.396       .  A
C633       C1720   1.453       .  S
C633        C634   1.394       .  A
C634        H638   1.085       .  S
C634        C635   1.391       .  A
C635       C1705   1.445       .  S
C635        C636   1.391       .  A
C636        H639   1.085       .  S
C640       C1218   1.482       .  S
C640        C641   1.394       .  A
C640        C645   1.422       .  A
C641        H646   1.085       .  S
C641        C642   1.391       .  A
C642       C1708   1.450       .  S
C642        C643   1.391       .  A
C643        H647   1.085       .  S
C643        C644   1.394       .  A
C644        C690   1.482       .  S
C644        C645   1.422       .  A
C645        H648   1.083       .  S
O649       Mg651   2.171       .  S
O649       Mg657   2.186       .  S
O649        C684   1.233       .  S
C650        O663   1.233       .  S
C650        O687   1.267   1_554  A
C650        H689   1.081       .  S
Mg651       O680   2.186   1_554  S
Mg651       O695   2.313       .  S
Mg651       O691   2.278       .  S
Mg651       O662   2.295   1_455  S
O652       Mg694   2.183   1_554  S
O652       Mg677   2.169       .  S
O652        C673   1.232       .  S
O653        C684   1.267   1_655  A
O653       Mg677   2.295       .  S
C654        O656   1.277   1_655  A
C654        O668   1.274       .  A
C654       C1141   1.483       .  S
O655        C683   1.267       .  A
O655       Mg657   2.295   1_556  S
O656       Mg688   2.280       .  S
Mg657       O663   2.170       .  S
Mg657       O671   2.273       .  S
Mg657       O659   2.308       .  S
C658        O696   1.276       .  A
C658        O664   1.275       .  A
O659        C666   1.274       .  A
H660        C673   1.080       .  S
C661        O675   1.233       .  S
C661        O676   1.267   1_655  A
C661        H686   1.081       .  S
O662        C685   1.267   1_554  A
O663       Mg677   2.185   1_455  S
O664       Mg694   2.314       .  S
C665        O678   1.277   1_554  A
C665        O670   1.275       .  A
C665       C1290   1.483       .  S
C666        O693   1.276   1_455  A
C666        C998   1.481       .  S
Mg667       O674   2.171       .  S
Mg667       O675   2.186       .  S
Mg667       O668   2.313       .  S
Mg667       O669   2.293   1_556  S
Mg667       O696   2.271       .  S
O669        C673   1.267       .  A
O670       Mg677   2.312       .  S
O671        C690   1.275       .  A
O672        C692   1.275       .  A
O672       Mg688   2.313       .  S
O674       Mg688   2.183   1_655  S
O674        C685   1.233       .  S
O675       Mg694   2.175       .  S
O676       Mg688   2.297       .  S
Mg677       O693   2.280       .  S
O678       Mg694   2.285       .  S
H679        C684   1.081       .  S
O680       Mg688   2.171       .  S
O680        C683   1.233       .  S
H681        C683   1.081       .  S
H682        C685   1.081       .  S
O687       Mg694   2.295   1_455  S
C690        O695   1.275       .  A
O691        C692   1.276   1_554  A
C692        C744   1.482       .  S
C697       C1684   1.457       .  S
C697        C698   1.395       .  A
C697        C702   1.396       .  A
C698        H703   1.084       .  S
C698        C699   1.393       .  A
C699       C1696   1.452       .  S
C699        C700   1.393       .  A
C700        H704   1.084       .  S
C700        C701   1.397       .  A
C701       C1669   1.466       .  S
C701        C702   1.397       .  A
C702        H705   1.083       .  S
C706        C707   1.394       .  A
C706        C711   1.419       .  A
C707        H712   1.084   1_455  S
C707        C708   1.400       .  A
C708       C1681   1.472   1_455  S
C708        C709   1.399       .  A
C709        H713   1.083       .  S
C709        C710   1.392       .  A
C710        C786   1.477       .  S
C710        C711   1.419       .  A
C711        H714   1.083       .  S
C715        C716   1.421       .  A
C715        C720   1.392       .  A
C716        H721   1.083       .  S
C716        C717   1.421       .  A
C717        C718   1.393       .  A
C718        H722   1.084       .  S
C718        C719   1.395       .  A
C719       C1693   1.461   1_565  S
C719        C720   1.396       .  A
C720        H723   1.085   1_565  S
C724        C860   1.477       .  S
C724        C725   1.419       .  A
C724        C729   1.392       .  A
C725        H730   1.083       .  S
C725        C726   1.419       .  A
C726        C727   1.393       .  A
C727        H731   1.085       .  S
C727        C728   1.398       .  A
C728       C1672   1.461       .  S
C728        C729   1.397       .  A
C729        H732   1.084       .  S
C733       C1109   1.480       .  S
C733        C734   1.419       .  A
C733        C738   1.392       .  A
C734        H739   1.083       .  S
C734        C735   1.420       .  A
C735        C822   1.480       .  S
C735        C736   1.392       .  A
C736        H740   1.085       .  S
C736        C737   1.400       .  A
C737       C1657   1.467   1_655  S
C737        C738   1.398       .  A
C738        H741   1.084   1_655  S
C742        C785   1.478       .  S
C742        C743   1.420       .  A
C742        C747   1.392       .  A
C743        H748   1.083       .  S
C743        C744   1.420       .  A
C744        C745   1.393       .  A
C745        H749   1.085   1_556  S
C745        C746   1.394       .  A
C746       C1648   1.459   1_556  S
C746        C747   1.396       .  A
C747        H750   1.085       .  S
C751       C1660   1.455       .  S
C751        C752   1.395       .  A
C751        C756   1.394       .  A
C752        H757   1.084       .  S
C752        C753   1.399       .  A
C753       C1645   1.466       .  S
C753        C754   1.396       .  A
C754        H758   1.083       .  S
C754        C755   1.392       .  A
C755       C1633   1.449       .  S
C755        C756   1.391       .  A
C756        H759   1.085       .  S
C760        C761   1.393       .  A
C760        C765   1.421       .  A
C761        H766   1.085   1_565  S
C761        C762   1.396       .  A
C762       C1636   1.459   1_565  S
C762        C763   1.395       .  A
C763        H767   1.085       .  S
C763        C764   1.391       .  A
C764        C917   1.477       .  S
C764        C765   1.420       .  A
C765        H768   1.083       .  S
O769       Mg771   2.180       .  S
O769       Mg777   2.170       .  S
O769        C804   1.234       .  S
C770        O783   1.234       .  S
C770        O807   1.270       .  A
C770        H809   1.081       .  S
Mg771       O800   2.168       .  S
Mg771       O815   2.302       .  S
Mg771       O811   2.303       .  S
Mg771       O782   2.311       .  S
O772       Mg814   2.164       .  S
O772       Mg797   2.176       .  S
O772        C793   1.234       .  S
O773        C804   1.270       .  A
O773       Mg797   2.310       .  S
C774        O776   1.273       .  A
C774        O788   1.273       .  A
O775        C803   1.270       .  A
O775       Mg777   2.312       .  S
O776       Mg808   2.303       .  S
Mg777       O783   2.179       .  S
Mg777       O791   2.307       .  S
Mg777       O779   2.302       .  S
C778        O816   1.272       .  A
C778        O784   1.274       .  A
C778        C892   1.477       .  S
O779        C786   1.274       .  A
H780        C793   1.081       .  S
C781        O795   1.234       .  S
C781        O796   1.271       .  A
C781        H806   1.080       .  S
O782        C805   1.270       .  A
O783       Mg797   2.171       .  S
O784       Mg814   2.297       .  S
C785        O798   1.273       .  A
C785        O790   1.274       .  A
C786        O813   1.272       .  A
Mg787       O794   2.181       .  S
Mg787       O795   2.162       .  S
Mg787       O788   2.294       .  S
Mg787       O789   2.311       .  S
Mg787       O816   2.301       .  S
O789        C793   1.270       .  A
O790       Mg797   2.299       .  S
O791        C810   1.274       .  A
O792        C812   1.274       .  A
O792       Mg808   2.299       .  S
O794       Mg808   2.163       .  S
O794        C805   1.234       .  S
O795       Mg814   2.178       .  S
O796       Mg808   2.313       .  S
Mg797       O813   2.296       .  S
O798       Mg814   2.301       .  S
H799        C804   1.081       .  S
O800       Mg808   2.181       .  S
O800        C803   1.234       .  S
H801        C803   1.081       .  S
H802        C805   1.079       .  S
O807       Mg814   2.311       .  S
C810        O815   1.274       .  A
O811        C812   1.273       .  A
O817       Mg819   2.178       .  S
O817       Mg825   2.171       .  S
O817        C852   1.234       .  S
C818        O831   1.234       .  S
C818        O855   1.271       .  A
C818        H857   1.081       .  S
Mg819       O848   2.171       .  S
Mg819       O863   2.300       .  S
Mg819       O859   2.302       .  S
Mg819       O830   2.310       .  S
O820       Mg862   2.163       .  S
O820       Mg845   2.184       .  S
O820        C841   1.234       .  S
O821        C852   1.270       .  A
O821       Mg845   2.309       .  S
C822        O824   1.273       .  A
C822        O836   1.274       .  A
O823        C851   1.270       .  A
O823       Mg825   2.311       .  S
O824       Mg856   2.305       .  S
Mg825       O831   2.172       .  S
Mg825       O839   2.292       .  S
Mg825       O827   2.299       .  S
C826        O864   1.273       .  A
C826        O832   1.275       .  A
C826        C951   1.479       .  S
O827        C834   1.273       .  A
H828        C841   1.081       .  S
C829        O843   1.234       .  S
C829        O844   1.270       .  A
C829        H854   1.081       .  S
O830        C853   1.270       .  A
O831       Mg845   2.165       .  S
O832       Mg862   2.305       .  S
C833        O846   1.274       .  A
C833        O838   1.272       .  A
C834        O861   1.272       .  A
Mg835       O842   2.178       .  S
Mg835       O843   2.168       .  S
Mg835       O836   2.304       .  S
Mg835       O837   2.314       .  S
Mg835       O864   2.300       .  S
O837        C841   1.271       .  A
O838       Mg845   2.290       .  S
O839        C858   1.272       .  A
O840        C860   1.274       .  A
O840       Mg856   2.299       .  S
O842       Mg856   2.169       .  S
O842        C853   1.234       .  S
O843       Mg862   2.183       .  S
O844       Mg856   2.312       .  S
Mg845       O861   2.301       .  S
O846       Mg862   2.304       .  S
H847        C852   1.081       .  S
O848       Mg856   2.182       .  S
O848        C851   1.234       .  S
H849        C851   1.081       .  S
H850        C853   1.081       .  S
O855       Mg862   2.312       .  S
C858        O863   1.274       .  A
C858       C1014   1.476       .  S
O859        C860   1.273       .  A
C865        C918   1.477       .  S
C865        C866   1.420       .  A
C865        C870   1.393       .  A
C866        H871   1.083       .  S
C866        C867   1.420       .  A
C867        C868   1.393       .  A
C868        H872   1.085   1_554  S
C868        C869   1.393       .  A
C869       C1621   1.454   1_554  S
C869        C870   1.394       .  A
C870        H873   1.085       .  S
C874       C1600   1.452       .  S
C874        C875   1.393       .  A
C874        C879   1.392       .  A
C875        H880   1.084       .  S
C875        C876   1.396       .  A
C876       C1624   1.461       .  S
C876        C877   1.397       .  A
C877        H881   1.084       .  S
C877        C878   1.394       .  A
C878       C1609   1.451       .  S
C878        C879   1.392       .  A
C879        H882   1.085       .  S
C883        C884   1.391       .  A
C883        C888   1.422       .  A
C884        H889   1.084       .  S
C884        C885   1.394       .  A
C885       C1612   1.460   1_655  S
C885        C886   1.397       .  A
C886        H890   1.085   1_655  S
C886        C887   1.393       .  A
C887        C888   1.422       .  A
C888        H891   1.083       .  S
C892        C893   1.418       .  A
C892        C897   1.391       .  A
C893        H898   1.083       .  S
C893        C894   1.418       .  A
C894        C895   1.392       .  A
C895        H899   1.085       .  S
C895        C896   1.398       .  A
C896       C1597   1.461       .  S
C896        C897   1.397       .  A
C897        H900   1.084       .  S
O901       Mg903   2.180       .  S
O901       Mg909   2.168       .  S
O901        C936   1.234       .  S
C902        O915   1.234       .  S
C902        O939   1.270       .  A
C902        H941   1.081       .  S
Mg903       O932   2.171       .  S
Mg903       O947   2.298       .  S
Mg903       O943   2.306       .  S
Mg903       O914   2.309       .  S
O904       Mg946   2.168       .  S
O904       Mg929   2.177       .  S
O904        C925   1.234       .  S
O905        C936   1.271       .  A
O905       Mg929   2.313       .  S
C906        O908   1.273       .  A
C906        O920   1.274       .  A
O907        C935   1.271       .  A
O907       Mg909   2.311       .  S
O908       Mg940   2.304       .  S
Mg909       O915   2.174       .  S
Mg909       O923   2.292       .  S
Mg909       O911   2.296       .  S
C910        O948   1.272       .  A
C910        O916   1.273       .  A
C910        C976   1.476       .  S
O911        C918   1.273       .  A
H912        C925   1.081       .  S
C913        O927   1.234       .  S
C913        O928   1.271       .  A
C913        H938   1.080       .  S
O914        C937   1.270       .  A
O915       Mg929   2.164       .  S
O916       Mg946   2.297       .  S
C917        O930   1.273       .  A
C917        O922   1.274       .  A
C918        O945   1.273       .  A
Mg919       O926   2.179       .  S
Mg919       O927   2.164       .  S
Mg919       O920   2.299       .  S
Mg919       O921   2.311       .  S
Mg919       O948   2.298       .  S
O921        C925   1.271       .  A
O922       Mg929   2.296       .  S
O923        C942   1.272       .  A
O924        C944   1.274       .  A
O924       Mg940   2.303       .  S
O926       Mg940   2.163       .  S
O926        C937   1.233       .  S
O927       Mg946   2.181       .  S
O928       Mg940   2.313       .  S
Mg929       O945   2.302       .  S
O930       Mg946   2.302       .  S
H931        C936   1.081       .  S
O932       Mg940   2.179       .  S
O932        C935   1.234       .  S
H933        C935   1.081       .  S
H934        C937   1.079       .  S
O939       Mg946   2.310       .  S
C942        O947   1.274       .  A
C942        C994   1.475       .  S
O943        C944   1.274       .  A
C949        C950   1.420       .  A
C949        C954   1.393       .  A
C950        H955   1.083       .  S
C950        C951   1.420       .  A
C951        C952   1.393       .  A
C952        H956   1.085       .  S
C952        C953   1.397       .  A
C953       C1588   1.462   1_545  S
C953        C954   1.396       .  A
C954        H957   1.084   1_545  S
C958       C1585   1.452       .  S
C958        C959   1.395       .  A
C958        C963   1.393       .  A
C959        H964   1.084       .  S
C959        C960   1.398       .  A
C960       C1573   1.463       .  S
C960        C961   1.396       .  A
C961        H965   1.084       .  S
C961        C962   1.392       .  A
C962       C1561   1.449       .  S
C962        C963   1.391       .  A
C963        H966   1.085       .  S
C967        C968   1.421       .  A
C967        C972   1.393       .  A
C968        H973   1.083       .  S
C968        C969   1.420       .  A
C969        C970   1.393       .  A
C970        H974   1.085   1_556  S
C970        C971   1.395       .  A
C971       C1576   1.455   1_556  S
C971        C972   1.394       .  A
C972        H975   1.085       .  S
C976        C977   1.419       .  A
C976        C981   1.391       .  A
C977        H982   1.083       .  S
C977        C978   1.419       .  A
C978        C979   1.392       .  A
C979        H983   1.085       .  S
C979        C980   1.396       .  A
C980       C1564   1.457       .  S
C980        C981   1.396       .  A
C981        H984   1.085       .  S
C985       C1537   1.460       .  S
C985        C986   1.387       .  A
C985        C990   1.395       .  A
C986        H991   1.084       .  S
C986        C987   1.389       .  A
C987       C1549   1.464       .  S
C987        C988   1.396       .  A
C988        H992   1.073       .  S
C988        C989   1.412       .  A
C989       C1525   1.503       .  S
C989        C990   1.407       .  A
C990        H993   1.074       .  S
C994        C995   1.392       .  A
C994        C999   1.419       .  A
C995       H1000   1.084       .  S
C995        C996   1.396       .  A
C996       C1540   1.465   1_455  S
C996        C997   1.398       .  A
C997       H1001   1.085   1_455  S
C997        C998   1.392       .  A
C998        C999   1.419       .  A
C999       H1002   1.083       .  S
C1003      C1004   1.414       .  A
C1003      C1008   1.393       .  A
C1004      H1009   1.083       .  S
C1004      C1005   1.414       .  A
C1005      C1098   1.476       .  S
C1005      C1006   1.394       .  A
C1006      H1010   1.081       .  S
C1006      C1007   1.405       .  A
C1007      C1528   1.488       .  S
C1007      C1008   1.402       .  A
C1008      H1011   1.079       .  S
C1012      C1013   1.418       .  A
C1012      C1017   1.392       .  A
C1013      H1018   1.083       .  S
C1013      C1014   1.418       .  A
C1014      C1015   1.390       .  A
C1015      H1019   1.084       .  S
C1015      C1016   1.398       .  A
C1016      C1552   1.466       .  S
C1016      C1017   1.400       .  A
C1017      H1020   1.085       .  S
C1021      C1022   1.421       .  A
C1021      C1026   1.393       .  A
C1022      H1027   1.083       .  S
C1022      C1023   1.421       .  A
C1023      C1024   1.394       .  A
C1024      H1028   1.085   1_655  S
C1024      C1025   1.393       .  A
C1025      C1513   1.453   1_655  S
C1025      C1026   1.394       .  A
C1026      H1029   1.085       .  S
C1030      C1501   1.466       .  S
C1030      C1031   1.398       .  A
C1030      C1035   1.397       .  A
C1031      H1036   1.084       .  S
C1031      C1032   1.393       .  A
C1032      C1516   1.448       .  S
C1032      C1033   1.392       .  A
C1033      H1037   1.085       .  S
C1033      C1034   1.393       .  A
C1034      C1489   1.452       .  S
C1034      C1035   1.393       .  A
C1035      H1038   1.083       .  S
C1039      C1186   1.484       .  S
C1039      C1040   1.421       .  A
C1039      C1044   1.392       .  A
C1040      H1045   1.083       .  S
C1040      C1041   1.421       .  A
C1041      C1042   1.393       .  A
C1042      H1046   1.085   1_545  S
C1042      C1043   1.398       .  A
C1043      C1492   1.462   1_545  S
C1043      C1044   1.394       .  A
C1044      H1047   1.084       .  S
C1048      C1049   1.391       .  A
C1048      C1053   1.418       .  A
C1049      H1054   1.085       .  S
C1049      C1050   1.396       .  A
C1050      C1504   1.459       .  S
C1050      C1051   1.397       .  A
C1051      H1055   1.085       .  S
C1051      C1052   1.392       .  A
C1052      C1338   1.477       .  S
C1052      C1053   1.418       .  A
C1053      H1056   1.083       .  S
C1057      C1058   1.392       .  A
C1057      C1062   1.419       .  A
C1058      H1063   1.084   1_565  S
C1058      C1059   1.395       .  A
C1059      C1477   1.463   1_565  S
C1059      C1060   1.398       .  A
C1060      H1064   1.085       .  S
C1060      C1061   1.393       .  A
C1061      C1302   1.477       .  S
C1061      C1062   1.419       .  A
C1062      H1065   1.083       .  S
C1066      C1468   1.457       .  S
C1066      C1067   1.395       .  A
C1066      C1071   1.394       .  A
C1067      H1072   1.084       .  S
C1067      C1068   1.394       .  A
C1068      C1453   1.455       .  S
C1068      C1069   1.395       .  A
C1069      H1073   1.085       .  S
C1069      C1070   1.395       .  A
C1070      C1480   1.453       .  S
C1070      C1071   1.392       .  A
C1071      H1074   1.085       .  S
C1075      C1076   1.393       .  A
C1075      C1080   1.420       .  A
C1076      H1081   1.085   1_554  S
C1076      C1077   1.398       .  A
C1077      C1456   1.465   1_554  S
C1077      C1078   1.395       .  A
C1078      H1082   1.084       .  S
C1078      C1079   1.392       .  A
C1079      C1194   1.482       .  S
C1079      C1080   1.420       .  A
C1080      H1083   1.083       .  S
C1084      C1085   1.421       .  A
C1084      C1089   1.391       .  A
C1085      H1090   1.083       .  S
C1085      C1086   1.421       .  A
C1086      C1087   1.393       .  A
C1087      H1091   1.085       .  S
C1087      C1088   1.392       .  A
C1088      C1465   1.450       .  S
C1088      C1089   1.392       .  A
C1089      H1092   1.085       .  S
O1093     Mg1095   2.174       .  S
O1093     Mg1101   2.169       .  S
O1093      C1128   1.234       .  S
C1094      O1107   1.234       .  S
C1094      O1131   1.270       .  A
C1094      H1133   1.081       .  S
Mg1095     O1124   2.171   1_545  S
Mg1095     O1139   2.293       .  S
Mg1095     O1135   2.296   1_545  S
Mg1095     O1106   2.311   1_445  S
O1096     Mg1138   2.169   1_545  S
O1096     Mg1121   2.179       .  S
O1096      C1117   1.234       .  S
O1097      C1128   1.271       .  A
O1097     Mg1121   2.313   1_455  S
C1098      O1100   1.273       .  A
C1098      O1112   1.272       .  A
O1099      C1127   1.270       .  A
O1099     Mg1101   2.307   1_565  S
O1100     Mg1132   2.299   1_655  S
Mg1101     O1107   2.181       .  S
Mg1101     O1115   2.295       .  S
Mg1101     O1103   2.284       .  S
C1102      O1140   1.271       .  A
C1102      O1108   1.273       .  A
O1103      C1110   1.271       .  A
H1104      C1117   1.081       .  S
C1105      O1119   1.234       .  S
C1105      O1120   1.271       .  A
C1105      H1130   1.080       .  S
O1106      C1129   1.270       .  A
O1107     Mg1121   2.162   1_455  S
O1108     Mg1138   2.296       .  S
C1109      O1122   1.273       .  A
C1109      O1114   1.275       .  A
C1110      O1137   1.274       .  A
C1110      C1159   1.477       .  S
Mg1111     O1118   2.179       .  S
Mg1111     O1119   2.167       .  S
Mg1111     O1112   2.289       .  S
Mg1111     O1113   2.310   1_565  S
Mg1111     O1140   2.294       .  S
O1113      C1117   1.270       .  A
O1114     Mg1121   2.305       .  S
O1115      C1134   1.272       .  A
O1116      C1136   1.275       .  A
O1116     Mg1132   2.303       .  S
O1118     Mg1132   2.162   1_655  S
O1118      C1129   1.233       .  S
O1119     Mg1138   2.178       .  S
O1120     Mg1132   2.313   1_655  S
Mg1121     O1137   2.305   1_655  S
O1122     Mg1138   2.302   1_545  S
H1123      C1128   1.081       .  S
O1124     Mg1132   2.176       .  S
O1124      C1127   1.234       .  S
H1125      C1127   1.081       .  S
H1126      C1129   1.081       .  S
O1131     Mg1138   2.312   1_445  S
C1134      O1139   1.273       .  A
O1135      C1136   1.272       .  A
C1136      C1272   1.477       .  S
C1141      C1142   1.391       .  A
C1141      C1146   1.422       .  A
C1142      H1147   1.084   1_655  S
C1142      C1143   1.393       .  A
C1143      C1441   1.460   1_655  S
C1143      C1144   1.394       .  A
C1144      H1148   1.085       .  S
C1144      C1145   1.393       .  A
C1145      C1146   1.423       .  A
C1146      H1149   1.083       .  S
C1150      C1444   1.453       .  S
C1150      C1151   1.388       .  A
C1150      C1155   1.394       .  A
C1151      H1156   1.085       .  S
C1151      C1152   1.386       .  A
C1152      C1432   1.449       .  S
C1152      C1153   1.393       .  A
C1153      H1157   1.080       .  S
C1153      C1154   1.405       .  A
C1154      C1417   1.486       .  S
C1154      C1155   1.406       .  A
C1155      H1158   1.080       .  S
C1159      C1160   1.411       .  A
C1159      C1164   1.394       .  A
C1160      H1165   1.083       .  S
C1160      C1161   1.411       .  A
C1161      C1182   1.483       .  S
C1161      C1162   1.395       .  A
C1162      H1166   1.076       .  S
C1162      C1163   1.411       .  A
C1163      C1420   1.507       .  S
C1163      C1164   1.408       .  A
C1164      H1167   1.074       .  S
C1168      C1314   1.477       .  S
C1168      C1169   1.419       .  A
C1168      C1173   1.392       .  A
C1169      H1174   1.083       .  S
C1169      C1170   1.419       .  A
C1170      C1171   1.391       .  A
C1171      H1175   1.085       .  S
C1171      C1172   1.394       .  A
C1172      C1429   1.451       .  S
C1172      C1173   1.395       .  A
C1173      H1176   1.085       .  S
O1177     Mg1179   2.174       .  S
O1177     Mg1185   2.188       .  S
O1177      C1212   1.233       .  S
C1178      O1191   1.233       .  S
C1178      O1215   1.267       .  A
C1178      H1217   1.081       .  S
Mg1179     O1208   2.184       .  S
Mg1179     O1223   2.315       .  S
Mg1179     O1219   2.290       .  S
Mg1179     O1190   2.298       .  S
O1180     Mg1222   2.181       .  S
O1180     Mg1205   2.170       .  S
O1180      C1201   1.232       .  S
O1181      C1212   1.267       .  A
O1181     Mg1205   2.294       .  S
C1182      O1184   1.274       .  A
C1182      O1196   1.276       .  A
O1183      C1211   1.267       .  A
O1183     Mg1185   2.295       .  S
O1184     Mg1216   2.265       .  S
Mg1185     O1191   2.171       .  S
Mg1185     O1199   2.274       .  S
Mg1185     O1187   2.313       .  S
C1186      O1224   1.277       .  A
C1186      O1192   1.275       .  A
O1187      C1194   1.274       .  A
H1188      C1201   1.080       .  S
C1189      O1203   1.232       .  S
C1189      O1204   1.267       .  A
C1189      H1214   1.080       .  S
O1190      C1213   1.267       .  A
O1191     Mg1205   2.184       .  S
O1192     Mg1222   2.316       .  S
C1193      O1206   1.277       .  A
C1193      O1198   1.275       .  A
C1194      O1221   1.276       .  A
Mg1195     O1202   2.175       .  S
Mg1195     O1203   2.186       .  S
Mg1195     O1196   2.318       .  S
Mg1195     O1197   2.295       .  S
Mg1195     O1224   2.284       .  S
O1197      C1201   1.267       .  A
O1198     Mg1205   2.314       .  S
O1199      C1218   1.276       .  A
O1200      C1220   1.273       .  A
O1200     Mg1216   2.304       .  S
O1202     Mg1216   2.187       .  S
O1202      C1213   1.233       .  S
O1203     Mg1222   2.177       .  S
O1204     Mg1216   2.296       .  S
Mg1205     O1221   2.279       .  S
O1206     Mg1222   2.287       .  S
H1207      C1212   1.081       .  S
O1208     Mg1216   2.167       .  S
O1208      C1211   1.233       .  S
H1209      C1211   1.081       .  S
H1210      C1213   1.081       .  S
O1215     Mg1222   2.295       .  S
C1218      O1223   1.275       .  A
O1219      C1220   1.277       .  A
C1220      C1245   1.483       .  S
C1225      C1384   1.463       .  S
C1225      C1226   1.396       .  A
C1225      C1230   1.397       .  A
C1226      H1231   1.083       .  S
C1226      C1227   1.394       .  A
C1227      C1405   1.453       .  S
C1227      C1228   1.393       .  A
C1228      H1232   1.084       .  S
C1228      C1229   1.394       .  A
C1229      C1393   1.456       .  S
C1229      C1230   1.394       .  A
C1230      H1233   1.084       .  S
C1234      C1235   1.423       .  A
C1234      C1239   1.393       .  A
C1235      H1240   1.083       .  S
C1235      C1236   1.423       .  A
C1236      C1237   1.393       .  A
C1237      H1241   1.085       .  S
C1237      C1238   1.392       .  A
C1238      C1381   1.456   1_556  S
C1238      C1239   1.392       .  A
C1239      H1242   1.085   1_556  S
C1243      C1244   1.419       .  A
C1243      C1248   1.391       .  A
C1244      H1249   1.083       .  S
C1244      C1245   1.419       .  A
C1245      C1246   1.391       .  A
C1246      H1250   1.084       .  S
C1246      C1247   1.400       .  A
C1247      C1396   1.471   1_455  S
C1247      C1248   1.398       .  A
C1248      H1251   1.083   1_455  S
C1252      C1253   1.418       .  A
C1252      C1257   1.392       .  A
C1253      H1258   1.083       .  S
C1253      C1254   1.418       .  A
C1254      C1255   1.391       .  A
C1255      H1259   1.084       .  S
C1255      C1256   1.398       .  A
C1256      C1408   1.463       .  S
C1256      C1257   1.398       .  A
C1257      H1260   1.085       .  S
C1261      C1369   1.455       .  S
C1261      C1262   1.394       .  A
C1261      C1266   1.395       .  A
C1262      H1267   1.085       .  S
C1262      C1263   1.391       .  A
C1263      C1345   1.446       .  S
C1263      C1264   1.390       .  A
C1264      H1268   1.084       .  S
C1264      C1265   1.394       .  A
C1265      C1360   1.455       .  S
C1265      C1266   1.396       .  A
C1266      H1269   1.084       .  S
C1270      C1340   1.478       .  S
C1270      C1271   1.418       .  A
C1270      C1275   1.392       .  A
C1271      H1276   1.083       .  S
C1271      C1272   1.418       .  A
C1272      C1273   1.391       .  A
C1273      H1277   1.084   1_455  S
C1273      C1274   1.398       .  A
C1274      C1372   1.464   1_455  S
C1274      C1275   1.399       .  A
C1275      H1278   1.085       .  S
C1279      C1280   1.423       .  A
C1279      C1284   1.393       .  A
C1280      H1285   1.083       .  S
C1280      C1281   1.423       .  A
C1281      C1282   1.393       .  A
C1282      H1286   1.085   1_545  S
C1282      C1283   1.391       .  A
C1283      C1348   1.454   1_545  S
C1283      C1284   1.392       .  A
C1284      H1287   1.085       .  S
C1288      C1289   1.421       .  A
C1288      C1293   1.392       .  A
C1289      H1294   1.083       .  S
C1289      C1290   1.422       .  A
C1290      C1291   1.393       .  A
C1291      H1295   1.085   1_554  S
C1291      C1292   1.392       .  A
C1292      C1357   1.449   1_554  S
C1292      C1293   1.392       .  A
C1293      H1296   1.085       .  S
O1297     Mg1299   2.179       .  S
O1297     Mg1305   2.163       .  S
O1297      C1332   1.233       .  S
C1298      O1311   1.234       .  S
C1298      O1335   1.270       .  A
C1298      H1337   1.080       .  S
Mg1299     O1328   2.168       .  S
Mg1299     O1343   2.297       .  S
Mg1299     O1339   2.301       .  S
Mg1299     O1310   2.309       .  S
O1300     Mg1342   2.166       .  S
O1300     Mg1325   2.179       .  S
O1300      C1321   1.234       .  S
O1301      C1332   1.270       .  A
O1301     Mg1325   2.310       .  S
C1302      O1304   1.273       .  A
C1302      O1316   1.274       .  A
O1303      C1331   1.270       .  A
O1303     Mg1305   2.311       .  S
O1304     Mg1336   2.299       .  S
Mg1305     O1311   2.180       .  S
Mg1305     O1319   2.299       .  S
Mg1305     O1307   2.299       .  S
C1306      O1344   1.272       .  A
C1306      O1312   1.274       .  A
O1307      C1314   1.274       .  A
H1308      C1321   1.079       .  S
C1309      O1323   1.234       .  S
C1309      O1324   1.270       .  A
C1309      H1334   1.080       .  S
O1310      C1333   1.270       .  A
O1311     Mg1325   2.166       .  S
O1312     Mg1342   2.301       .  S
C1313      O1326   1.273       .  A
C1313      O1318   1.274       .  A
C1314      O1341   1.273       .  A
Mg1315     O1322   2.177       .  S
Mg1315     O1323   2.166       .  S
Mg1315     O1316   2.299       .  S
Mg1315     O1317   2.311       .  S
Mg1315     O1344   2.297       .  S
O1317      C1321   1.270       .  A
O1318     Mg1325   2.300       .  S
O1319      C1338   1.273       .  A
O1320      C1340   1.274       .  A
O1320     Mg1336   2.299       .  S
O1322     Mg1336   2.168       .  S
O1322      C1333   1.234       .  S
O1323     Mg1342   2.180       .  S
O1324     Mg1336   2.311       .  S
Mg1325     O1341   2.301       .  S
O1326     Mg1342   2.302       .  S
H1327      C1332   1.079       .  S
O1328     Mg1336   2.176       .  S
O1328      C1331   1.234       .  S
H1329      C1331   1.081       .  S
H1330      C1333   1.081       .  S
O1335     Mg1342   2.311       .  S
C1338      O1343   1.273       .  A
O1339      C1340   1.273       .  A
C1345      C1346   1.396       .  A
C1345      C1350   1.400       .  A
C1346      H1351   1.083       .  S
C1346      C1347   1.390       .  A
C1347      C1348   1.406       .  A
C1347      O1352   1.372       .  S
C1348      C1349   1.400       .  A
C1349      H1353   1.084   1_565  S
C1349      C1350   1.388       .  A
C1350      O1354   1.370       .  S
O1352      H1356   0.992       .  S
O1354      H1355   0.992       .  S
C1357      C1358   1.397       .  A
C1357      C1362   1.402       .  A
C1358      H1363   1.084       .  S
C1358      C1359   1.390       .  A
C1359      C1360   1.406       .  A
C1359      O1364   1.372       .  S
C1360      C1361   1.401       .  A
C1361      H1365   1.084       .  S
C1361      C1362   1.390       .  A
C1362      O1366   1.372   1_556  S
O1364      H1368   0.992       .  S
O1366      H1367   0.992       .  S
C1369      C1370   1.399       .  A
C1369      C1374   1.403       .  A
C1370      H1375   1.084       .  S
C1370      C1371   1.390       .  A
C1371      C1372   1.408       .  A
C1371      O1376   1.373       .  S
C1372      C1373   1.403   1_655  A
C1373      H1377   1.084       .  S
C1373      C1374   1.391   1_455  A
C1374      O1378   1.372       .  S
O1376      H1380   0.992       .  S
O1378      H1379   0.992       .  S
C1381      C1382   1.399       .  A
C1381      C1386   1.403       .  A
C1382      H1387   1.084       .  S
C1382      C1383   1.391       .  A
C1383      C1384   1.408       .  A
C1383      O1388   1.373       .  S
C1384      C1385   1.403       .  A
C1385      H1389   1.084       .  S
C1385      C1386   1.389       .  A
C1386      O1390   1.373       .  S
O1388      H1392   0.992       .  S
O1390      H1391   0.992       .  S
C1393      C1394   1.398       .  A
C1393      C1398   1.403       .  A
C1394      H1399   1.084       .  S
C1394      C1395   1.392       .  A
C1395      C1396   1.412       .  A
C1395      O1400   1.373       .  S
C1396      C1397   1.405       .  A
C1397      H1401   1.083   1_655  S
C1397      C1398   1.387       .  A
C1398      O1402   1.373       .  S
O1400      H1404   0.992       .  S
O1402      H1403   0.992       .  S
C1405      C1406   1.398       .  A
C1405      C1410   1.402       .  A
C1406      H1411   1.084       .  S
C1406      C1407   1.389       .  A
C1407      C1408   1.408       .  A
C1407      O1412   1.373       .  S
C1408      C1409   1.404       .  A
C1409      H1413   1.084       .  S
C1409      C1410   1.391       .  A
C1410      O1414   1.372       .  S
O1412      H1416   0.992       .  S
O1414      H1415   0.992       .  S
C1417      C1418   1.403       .  A
C1417      C1422   1.407       .  A
C1418      H1423   1.081       .  S
C1418      C1419   1.393       .  A
C1419      C1420   1.421       .  A
C1419      O1424   1.371       .  S
C1420      C1421   1.413       .  A
C1421      H1425   1.076       .  S
C1421      C1422   1.391       .  A
C1422      O1426   1.374       .  S
O1424      H1428   0.993       .  S
O1426      H1427   0.992       .  S
C1429      C1430   1.400       .  A
C1429      C1434   1.403       .  A
C1430      H1435   1.084       .  S
C1430      C1431   1.390       .  A
C1431      C1432   1.400       .  A
C1431      O1436   1.370       .  S
C1432      C1433   1.400       .  A
C1433      H1437   1.084       .  S
C1433      C1434   1.389       .  A
C1434      O1438   1.372       .  S
O1436      H1440   0.992       .  S
O1438      H1439   0.992       .  S
C1441      C1442   1.402   1_455  A
C1441      C1446   1.407       .  A
C1442      H1447   1.084       .  S
C1442      C1443   1.390   1_655  A
C1443      C1444   1.400       .  A
C1443      O1448   1.370       .  S
C1444      C1445   1.399       .  A
C1445      H1449   1.084       .  S
C1445      C1446   1.389       .  A
C1446      O1450   1.373       .  S
O1448      H1452   0.992       .  S
O1450      H1451   0.992       .  S
C1453      C1454   1.398       .  A
C1453      C1458   1.404       .  A
C1454      H1459   1.084       .  S
C1454      C1455   1.391       .  A
C1455      C1456   1.410       .  A
C1455      O1460   1.373   1_556  S
C1456      C1457   1.402       .  A
C1457      H1461   1.084       .  S
C1457      C1458   1.390       .  A
C1458      O1462   1.372       .  S
O1460      H1464   0.992       .  S
O1462      H1463   0.992       .  S
C1465      C1466   1.398       .  A
C1465      C1470   1.402       .  A
C1466      H1471   1.084       .  S
C1466      C1467   1.390       .  A
C1467      C1468   1.407       .  A
C1467      O1472   1.373       .  S
C1468      C1469   1.402       .  A
C1469      H1473   1.084       .  S
C1469      C1470   1.388       .  A
C1470      O1474   1.372       .  S
O1472      H1476   0.992       .  S
O1474      H1475   0.992       .  S
C1477      C1478   1.402   1_545  A
C1477      C1482   1.409       .  A
C1478      H1483   1.084       .  S
C1478      C1479   1.391   1_565  A
C1479      C1480   1.403       .  A
C1479      O1484   1.372       .  S
C1480      C1481   1.397       .  A
C1481      H1485   1.084       .  S
C1481      C1482   1.390       .  A
C1482      O1486   1.373       .  S
O1484      H1488   0.992       .  S
O1486      H1487   0.992       .  S
C1489      C1490   1.397       .  A
C1489      C1494   1.403       .  A
C1490      H1495   1.084       .  S
C1490      C1491   1.392   1_565  A
C1491      C1492   1.410   1_545  A
C1491      O1496   1.373       .  S
C1492      C1493   1.401       .  A
C1493      H1497   1.084       .  S
C1493      C1494   1.389       .  A
C1494      O1498   1.372       .  S
O1496      H1500   0.992       .  S
O1498      H1499   0.992       .  S
C1501      C1502   1.403       .  A
C1501      C1506   1.409       .  A
C1502      H1507   1.084       .  S
C1502      C1503   1.390       .  A
C1503      C1504   1.405       .  A
C1503      O1508   1.373       .  S
C1504      C1505   1.399       .  A
C1505      H1509   1.084       .  S
C1505      C1506   1.391       .  A
C1506      O1510   1.373       .  S
O1508      H1512   0.992       .  S
O1510      H1511   0.992       .  S
C1513      C1514   1.399       .  A
C1513      C1518   1.405       .  A
C1514      H1519   1.084   1_455  S
C1514      C1515   1.390       .  A
C1515      C1516   1.402       .  A
C1515      O1520   1.371       .  S
C1516      C1517   1.397       .  A
C1517      H1521   1.084       .  S
C1517      C1518   1.391       .  A
C1518      O1522   1.372       .  S
O1520      H1524   0.992       .  S
O1522      H1523   0.992       .  S
C1525      C1526   1.410       .  A
C1525      C1530   1.420       .  A
C1526      H1531   1.075       .  S
C1526      C1527   1.390       .  A
C1527      C1528   1.410       .  A
C1527      O1532   1.375       .  S
C1528      C1529   1.403       .  A
C1529      H1533   1.080       .  S
C1529      C1530   1.393       .  A
C1530      O1534   1.372       .  S
O1532      H1536   0.993       .  S
O1534      H1535   0.993       .  S
C1537      C1538   1.399       .  A
C1537      C1542   1.406       .  A
C1538      H1543   1.084       .  S
C1538      C1539   1.392   1_655  A
C1539      C1540   1.409   1_455  A
C1539      O1544   1.372       .  S
C1540      C1541   1.402       .  A
C1541      H1545   1.084       .  S
C1541      C1542   1.388       .  A
C1542      O1546   1.373       .  S
O1544      H1548   0.992       .  S
O1546      H1547   0.992       .  S
C1549      C1550   1.401       .  A
C1549      C1554   1.405       .  A
C1550      H1555   1.084       .  S
C1550      C1551   1.390       .  A
C1551      C1552   1.408       .  A
C1551      O1556   1.373       .  S
C1552      C1553   1.403       .  A
C1553      H1557   1.084       .  S
C1553      C1554   1.391       .  A
C1554      O1558   1.372       .  S
O1556      H1560   0.992       .  S
O1558      H1559   0.992       .  S
C1561      C1562   1.398       .  A
C1561      C1566   1.402       .  A
C1562      H1567   1.084       .  S
C1562      C1563   1.391       .  A
C1563      C1564   1.406       .  A
C1563      O1568   1.372       .  S
C1564      C1565   1.401       .  A
C1565      H1569   1.084       .  S
C1565      C1566   1.389       .  A
C1566      O1570   1.372       .  S
O1568      H1572   0.992       .  S
O1570      H1571   0.992       .  S
C1573      C1574   1.402       .  A
C1573      C1578   1.409       .  A
C1574      H1579   1.084       .  S
C1574      C1575   1.390       .  A
C1575      C1576   1.404       .  A
C1575      O1580   1.372       .  S
C1576      C1577   1.398       .  A
C1577      H1581   1.084       .  S
C1577      C1578   1.389       .  A
C1578      O1582   1.372       .  S
O1580      H1584   0.992       .  S
O1582      H1583   0.991       .  S
C1585      C1586   1.397       .  A
C1585      C1590   1.402       .  A
C1586      H1591   1.084       .  S
C1586      C1587   1.391       .  A
C1587      C1588   1.408       .  A
C1587      O1592   1.373       .  S
C1588      C1589   1.402       .  A
C1589      H1593   1.084   1_565  S
C1589      C1590   1.391       .  A
C1590      O1594   1.372       .  S
O1592      H1596   0.992       .  S
O1594      H1595   0.992       .  S
C1597      C1598   1.402       .  A
C1597      C1602   1.408       .  A
C1598      H1603   1.084       .  S
C1598      C1599   1.389       .  A
C1599      C1600   1.402       .  A
C1599      O1604   1.371       .  S
C1600      C1601   1.398       .  A
C1601      H1605   1.084       .  S
C1601      C1602   1.392       .  A
C1602      O1606   1.373       .  S
O1604      H1608   0.992       .  S
O1606      H1607   0.992       .  S
C1609      C1610   1.397       .  A
C1609      C1614   1.402       .  A
C1610      H1615   1.084       .  S
C1610      C1611   1.391       .  A
C1611      C1612   1.408       .  A
C1611      O1616   1.373   1_455  S
C1612      C1613   1.401       .  A
C1613      H1617   1.084       .  S
C1613      C1614   1.390       .  A
C1614      O1618   1.371       .  S
O1616      H1620   0.992       .  S
O1618      H1619   0.992       .  S
C1621      C1622   1.398       .  A
C1621      C1626   1.403       .  A
C1622      H1627   1.084       .  S
C1622      C1623   1.391       .  A
C1623      C1624   1.408       .  A
C1623      O1628   1.373       .  S
C1624      C1625   1.402       .  A
C1625      H1629   1.084       .  S
C1625      C1626   1.390       .  A
C1626      O1630   1.372   1_556  S
O1628      H1632   0.992       .  S
O1630      H1631   0.992       .  S
C1633      C1634   1.397       .  A
C1633      C1638   1.402       .  A
C1634      H1639   1.084       .  S
C1634      C1635   1.393   1_545  A
C1635      C1636   1.408   1_565  A
C1635      O1640   1.373       .  S
C1636      C1637   1.401       .  A
C1637      H1641   1.084       .  S
C1637      C1638   1.387       .  A
C1638      O1642   1.372       .  S
O1640      H1644   0.992       .  S
O1642      H1643   0.992       .  S
C1645      C1646   1.403       .  A
C1645      C1650   1.409       .  A
C1646      H1651   1.084       .  S
C1646      C1647   1.390       .  A
C1647      C1648   1.405       .  A
C1647      O1652   1.373       .  S
C1648      C1649   1.399       .  A
C1649      H1653   1.084       .  S
C1649      C1650   1.391       .  A
C1650      O1654   1.373       .  S
O1652      H1656   0.992       .  S
O1654      H1655   0.992       .  S
C1657      C1658   1.403       .  A
C1657      C1662   1.410       .  A
C1658      H1663   1.084   1_455  S
C1658      C1659   1.389       .  A
C1659      C1660   1.403       .  A
C1659      O1664   1.372       .  S
C1660      C1661   1.398       .  A
C1661      H1665   1.084       .  S
C1661      C1662   1.393       .  A
C1662      O1666   1.373       .  S
O1664      H1668   0.992       .  S
O1666      H1667   0.992       .  S
C1669      C1670   1.403       .  A
C1669      C1674   1.409       .  A
C1670      H1675   1.084       .  S
C1670      C1671   1.391       .  A
C1671      C1672   1.405       .  A
C1671      O1676   1.373       .  S
C1672      C1673   1.400       .  A
C1673      H1677   1.084       .  S
C1673      C1674   1.391       .  A
C1674      O1678   1.373       .  S
O1676      H1680   0.992       .  S
O1678      H1679   0.992       .  S
C1681      C1682   1.406       .  A
C1681      C1686   1.411       .  A
C1682      H1687   1.083       .  S
C1682      C1683   1.391       .  A
C1683      C1684   1.402       .  A
C1683      O1688   1.372       .  S
C1684      C1685   1.399       .  A
C1685      H1689   1.084       .  S
C1685      C1686   1.391       .  A
C1686      O1690   1.373   1_655  S
O1688      H1692   0.992       .  S
O1690      H1691   0.992       .  S
C1693      C1694   1.401       .  A
C1693      C1698   1.408       .  A
C1694      H1699   1.084       .  S
C1694      C1695   1.390       .  A
C1695      C1696   1.403       .  A
C1695      O1700   1.372       .  S
C1696      C1697   1.398       .  A
C1697      H1701   1.084       .  S
C1697      C1698   1.392       .  A
C1698      O1702   1.373   1_545  S
O1700      H1704   0.992       .  S
O1702      H1703   0.992       .  S
C1705      C1706   1.397       .  A
C1705      C1710   1.401       .  A
C1706      H1711   1.084       .  S
C1706      C1707   1.390       .  A
C1707      C1708   1.404       .  A
C1707      O1712   1.372       .  S
C1708      C1709   1.399       .  A
C1709      H1713   1.084       .  S
C1709      C1710   1.389       .  A
C1710      O1714   1.371       .  S
O1712      H1716   0.992       .  S
O1714      H1715   0.992       .  S
C1717      C1718   1.401       .  A
C1717      C1722   1.408       .  A
C1718      H1723   1.084       .  S
C1718      C1719   1.390       .  A
C1719      C1720   1.403       .  A
C1719      O1724   1.371       .  S
C1720      C1721   1.398       .  A
C1721      H1725   1.084       .  S
C1721      C1722   1.392       .  A
C1722      O1726   1.373       .  S
O1724      H1728   0.992       .  S
O1726      H1727   0.992       .  S
C1729      C1730   1.401       .  A
C1729      C1734   1.408       .  A
C1730      H1735   1.084   1_554  S
C1730      C1731   1.390       .  A
C1731      C1732   1.402       .  A
C1731      O1736   1.371       .  S
C1732      C1733   1.397       .  A
C1733      H1737   1.084       .  S
C1733      C1734   1.391       .  A
C1734      O1738   1.373       .  S
O1736      H1740   0.992       .  S
O1738      H1739   0.992       .  S
C1741      C1742   1.398       .  A
C1741      C1746   1.406       .  A
C1742      H1747   1.084       .  S
C1742      C1743   1.385       .  A
C1743      C1744   1.403       .  A
C1743      O1748   1.372       .  S
C1744      C1745   1.396       .  A
C1745      H1749   1.082       .  S
C1745      C1746   1.392       .  A
C1746      O1750   1.372       .  S
O1748      H1752   0.992       .  S
O1750      H1751   0.992       .  S
C1753      C1754   1.398       .  A
C1753      C1758   1.406       .  A
C1754      H1759   1.084       .  S
C1754      C1755   1.393       .  A
C1755      C1756   1.407       .  A
C1755      O1760   1.372       .  S
C1756      C1757   1.399       .  A
C1757      H1761   1.084       .  S
C1757      C1758   1.388       .  A
C1758      O1762   1.373       .  S
O1760      H1764   0.992       .  S
O1762      H1763   0.992       .  S
C1765      C1766   1.403       .  A
C1765      C1770   1.413       .  A
C1766      H1771   1.080       .  S
C1766      C1767   1.390       .  A
C1767      C1768   1.417       .  A
C1767      O1772   1.374       .  S
C1768      C1769   1.408       .  A
C1769      H1773   1.079   1_556  S
C1769      C1770   1.393       .  A
C1770      O1774   1.374       .  S
O1772      H1776   0.993       .  S
O1774      H1775   0.993       .  S
C1777      C1778   1.398       .  A
C1777      C1782   1.401       .  A
C1778      H1783   1.084       .  S
C1778      C1779   1.389       .  A
C1779      C1780   1.404       .  A
C1779      O1784   1.372       .  S
C1780      C1781   1.399       .  A
C1781      H1785   1.084       .  S
C1781      C1782   1.389       .  A
C1782      O1786   1.371       .  S
O1784      H1788   0.992       .  S
O1786      H1787   0.992       .  S
C1789      C1790   1.398       .  A
C1789      C1794   1.402       .  A
C1790      H1795   1.084       .  S
C1790      C1791   1.392       .  A
C1791      C1792   1.404       .  A
C1791      O1796   1.372       .  S
C1792      C1793   1.399       .  A
C1793      H1797   1.084       .  S
C1793      C1794   1.390       .  A
C1794      O1798   1.371       .  S
O1796      H1800   0.992       .  S
O1798      H1799   0.992       .  S
C1801      C1802   1.403       .  A
C1801      C1806   1.410       .  A
C1802      H1807   1.084   1_565  S
C1802      C1803   1.391       .  A
C1803      C1804   1.404       .  A
C1803      O1808   1.372       .  S
C1804      C1805   1.398       .  A
C1805      H1809   1.084       .  S
C1805      C1806   1.391       .  A
C1806      O1810   1.373       .  S
O1808      H1812   0.992       .  S
O1810      H1811   0.992       .  S
C1813      C1814   1.398       .  A
C1813      C1818   1.402       .  A
C1814      H1819   1.084       .  S
C1814      C1815   1.390       .  A
C1815      C1816   1.405       .  A
C1815      O1820   1.372       .  S
C1816      C1817   1.401       .  A
C1817      H1821   1.084       .  S
C1817      C1818   1.390       .  A
C1818      O1822   1.372       .  S
O1820      H1824   0.992       .  S
O1822      H1823   0.992       .  S
C1825      C1826   1.401       .  A
C1825      C1830   1.407       .  A
C1826      H1831   1.084       .  S
C1826      C1827   1.388       .  A
C1827      C1828   1.401       .  A
C1827      O1832   1.371       .  S
C1828      C1829   1.397       .  A
C1829      H1833   1.084       .  S
C1829      C1830   1.391       .  A
C1830      O1834   1.373       .  S
O1832      H1836   0.992       .  S
O1834      H1835   0.992       .  S
C1837      C1838   1.402       .  A
C1837      C1842   1.410       .  A
C1838      H1843   1.084   1_545  S
C1838      C1839   1.390       .  A
C1839      C1840   1.404       .  A
C1839      O1844   1.372       .  S
C1840      C1841   1.398       .  A
C1841      H1845   1.084       .  S
C1841      C1842   1.391       .  A
C1842      O1846   1.373       .  S
O1844      H1848   0.992       .  S
O1846      H1847   0.992       .  S
C1849      C1850   1.398       .  A
C1849      C1854   1.403       .  A
C1850      H1855   1.084       .  S
C1850      C1851   1.391       .  A
C1851      C1852   1.409       .  A
C1851      O1856   1.373       .  S
C1852      C1853   1.403       .  A
C1853      H1857   1.084       .  S
C1853      C1854   1.390       .  A
C1854      O1858   1.372       .  S
O1856      H1860   0.992       .  S
O1858      H1859   0.992       .  S
C1861      C1862   1.402       .  A
C1861      C1866   1.408       .  A
C1862      H1867   1.084       .  S
C1862      C1863   1.391       .  A
C1863      C1864   1.404       .  A
C1863      O1868   1.372       .  S
C1864      C1865   1.399       .  A
C1865      H1869   1.084       .  S
C1865      C1866   1.391       .  A
C1866      O1870   1.373       .  S
O1868      H1872   0.992       .  S
O1870      H1871   0.992       .  S
C1873      C1874   1.399       .  A
C1873      C1878   1.404       .  A
C1874      H1879   1.084       .  S
C1874      C1875   1.392       .  A
C1875      C1876   1.409       .  A
C1875      O1880   1.373       .  S
C1876      C1877   1.403       .  A
C1877      H1881   1.084       .  S
C1877      C1878   1.391       .  A
C1878      O1882   1.372       .  S
O1880      H1884   0.992       .  S
O1882      H1883   0.992       .  S
C1885      C1886   1.403       .  A
C1885      C1890   1.408       .  A
C1886      H1891   1.084       .  S
C1886      C1887   1.391       .  A
C1887      C1888   1.404       .  A
C1887      O1892   1.372       .  S
C1888      C1889   1.399       .  A
C1889      H1893   1.084       .  S
C1889      C1890   1.393       .  A
C1890      O1894   1.373       .  S
O1892      H1896   0.992       .  S
O1894      H1895   0.992       .  S
C1897      C1898   1.399       .  A
C1897      C1902   1.403       .  A
C1898      H1903   1.084       .  S
C1898      C1899   1.392       .  A
C1899      C1900   1.408       .  A
C1899      O1904   1.373       .  S
C1900      C1901   1.403       .  A
C1901      H1905   1.084       .  S
C1901      C1902   1.391       .  A
C1902      O1906   1.372       .  S
O1904      H1908   0.992       .  S
O1906      H1907   0.992       .  S
C1909      C1910   1.404       .  A
C1909      C1914   1.410       .  A
C1910      H1915   1.084       .  S
C1910      C1911   1.391       .  A
C1911      C1912   1.404       .  A
C1911      O1916   1.372       .  S
C1912      C1913   1.399       .  A
C1913      H1917   1.084       .  S
C1913      C1914   1.392       .  A
C1914      O1918   1.373       .  S
O1916      H1920   0.992       .  S
O1918      H1919   0.992       .  S
