geometry optimzed in LAMMPS
_audit_creation_date              2020-11-30 
_audit_creation_method            'lammps2cif' 
_symmetry_space_group_name_H-M    'P1' 
_symmetry_Int_Tables_number       1 
_symmetry_cell_setting            triclinic 
loop_ 
_symmetry_equiv_pos_as_xyz 
  x,y,z 
_cell_length_a                    85.30374533 
_cell_length_b                    85.10617506313127 
_cell_length_c                    30.393605221064664 
_cell_angle_alpha                 89.75376687363881 
_cell_angle_beta                  89.88061266993418 
_cell_angle_gamma                 121.10268917958844 
loop_ 
_atom_site_label 
_atom_site_type_symbol 
_atom_site_fract_x 
_atom_site_fract_y 
_atom_site_fract_z 
_atom_site_charge 
C1          C  0.46398948  0.10323201  0.47386654     0.86200
C2          C  0.44988792  0.08372937  0.49130937    -0.54000
C3          C  0.44960468  0.06995904  0.46725721     0.09100
C4          C  0.46328594  0.07678953  0.42866184     0.20100
C5          C  0.48211268  0.10344338  0.47358275    -0.54800
C6          C  0.48184374  0.08985508  0.44970579     0.09200
C7          C  0.45861240  0.10256609  0.42539847    -0.54300
C8          C  0.45846192  0.08896864  0.40138260     0.09800
H9          H  0.44106058  0.08069652  0.51966067     0.14300
H10         H  0.46341452  0.06572919  0.40978617     0.00000
H11         H  0.49422975  0.11355721  0.49115042     0.14600
H12         H  0.45550701  0.11236783  0.41112945     0.14400
C13         C  0.36285362  0.89997214  0.47873611     0.86200
C14         C  0.36728524  0.91963154  0.46888828    -0.54000
C15         C  0.38254259  0.93296037  0.48988992     0.09100
C16         C  0.39190600  0.92549196  0.51926855     0.20100
C17         C  0.38055166  0.90005975  0.46839949    -0.54800
C18         C  0.39577037  0.91345689  0.48893382     0.09200
C19         C  0.36166908  0.89862233  0.52970710    -0.54300
C20         C  0.37681788  0.91199239  0.55088374     0.09800
H21         H  0.35885487  0.92265810  0.44800100     0.14300
H22         H  0.40418867  0.93641581  0.53629077     0.00000
H23         H  0.38092429  0.89004622  0.44706032     0.14600
H24         H  0.35027468  0.88818591  0.54860887     0.14400
C25         C  0.37197708  0.90702085  0.95762516     0.86200
C26         C  0.39141356  0.90978151  0.95792428    -0.54000
C27         C  0.40402108  0.92387456  0.93197444     0.09100
C28         C  0.39612083  0.93429634  0.90848704     0.20100
C29         C  0.37570983  0.92603132  0.97191813    -0.54800
C30         C  0.38839064  0.94031401  0.94638131     0.09200
C31         C  0.36696927  0.90534117  0.90881130    -0.54300
C32         C  0.37934401  0.91950534  0.88315866     0.09800
H33         H  0.39540289  0.90203999  0.97860726     0.14300
H34         H  0.40626894  0.94589061  0.88774005     0.00000
H35         H  0.36948105  0.92814724  0.00063895     0.14600
H36         H  0.35489171  0.89347246  0.89528453     0.14400
C37         C  0.46243692  0.10849821  0.00239066     0.86200
C38         C  0.48087872  0.10910617  0.99989368    -0.54000
C39         C  0.48087550  0.09428900  0.01821876     0.09100
C40         C  0.46217451  0.08053499  0.03915456     0.20100
C41         C  0.44831242  0.08983286  0.98278864    -0.54800
C42         C  0.44834436  0.07535296  0.00198976     0.09200
C43         C  0.45872182  0.10679998  0.05217235    -0.54300
C44         C  0.45813602  0.09199473  0.07111855     0.09800
H45         H  0.49307199  0.12064969  0.98555113     0.14300
H46         H  0.46091467  0.06810214  0.05403230     0.00000
H47         H  0.43942422  0.08826639  0.95551356     0.14600
H48         H  0.45800189  0.11700431  0.07181524     0.14400
In49       In  0.51465507  0.26782862  0.85366567     1.36900
C50         C  0.49981030  0.23341413  0.88285767     0.77300
O51         O  0.50040380  0.26148571  0.78778432    -0.61200
O52         O  0.52785856  0.26788206  0.78913672    -0.52100
C53         C  0.49991920  0.28802685  0.87430978     0.70000
O54         O  0.49259673  0.27129136  0.88423249    -0.46900
C55         C  0.54587826  0.28564055  0.89928037     0.74700
O56         O  0.49133866  0.24192514  0.88386488    -0.58800
O57         O  0.54476730  0.28892686  0.85929765    -0.48900
O58         O  0.51542899  0.24226045  0.86520527    -0.55200
C59         C  0.51400999  0.26368673  0.76618558     0.84800
O60         O  0.51460395  0.29432611  0.85266724    -0.57100
O61         O  0.53090098  0.27352133  0.91606568    -0.60400
In62       In  0.51397290  0.26030768  0.63033450     1.36900
C63         C  0.50122576  0.28209899  0.60828706     0.77300
O64         O  0.50006517  0.25796387  0.69521171    -0.61200
O65         O  0.52764659  0.26453407  0.69638439    -0.52100
C66         C  0.49742758  0.22462924  0.61061089     0.70000
O67         O  0.49327313  0.23541354  0.59285142    -0.46900
C68         C  0.54446335  0.27400468  0.58167590     0.74700
O69         O  0.49090083  0.26502101  0.61376874    -0.58800
O70         O  0.54432300  0.27936084  0.62026465    -0.48900
O71         O  0.51799062  0.28781072  0.61283425    -0.55200
C72         C  0.51387940  0.26190458  0.71812756     0.84800
O73         O  0.50985028  0.23214254  0.63916971    -0.57100
O74         O  0.52903048  0.26159095  0.56811068    -0.60400
In75       In  0.26074604  0.74745605  0.10462521     1.36900
C76         C  0.27959372  0.78364022  0.08705369     0.77300
O77         O  0.25291916  0.75083000  0.17296006    -0.61200
O78         O  0.27010841  0.73977117  0.16634616    -0.52100
C79         C  0.22629128  0.72993662  0.07489110     0.70000
O80         O  0.24008904  0.73644673  0.04998808    -0.46900
C81         C  0.27536730  0.73047883  0.06186307     0.74700
O82         O  0.26327103  0.77311830  0.07529164    -0.58800
O83         O  0.26275656  0.72243461  0.09014203    -0.48900
O84         O  0.28594314  0.77578459  0.10970832    -0.55200
C85         C  0.26170620  0.74458490  0.19193421     0.84800
O86         O  0.23010856  0.73274789  0.11516679    -0.57100
O87         O  0.28035158  0.74707441  0.05594927    -0.60400
C88         C  0.33537880  0.66830804  0.90649732    -0.02800
In89       In  0.48736504  0.74682632  0.11397563     1.36900
C90         C  0.50265797  0.72667941  0.09982087     0.77300
O91         O  0.50139357  0.75589030  0.17959765    -0.61200
O92         O  0.47273787  0.73702962  0.17957836    -0.52100
C93         C  0.50274767  0.78216101  0.09119085     0.70000
O94         O  0.50708736  0.77157476  0.07343115    -0.46900
C95         C  0.45777830  0.73291057  0.06196029     0.74700
O96         O  0.51141151  0.74392946  0.09700620    -0.58800
O97         O  0.45693649  0.73411504  0.10317563    -0.48900
O98         O  0.48604442  0.71977797  0.11016520    -0.55200
C99         C  0.48702825  0.74640615  0.20205136     0.84800
O100        O  0.49051012  0.77464002  0.12041274    -0.57100
O101        O  0.47370022  0.73856558  0.04772111    -0.60400
In102      In  0.48726302  0.74825546  0.33864513     1.36900
C103        C  0.50313091  0.78386548  0.35819489     0.77300
O104        O  0.50124635  0.75676359  0.27237938    -0.61200
O105        O  0.47290488  0.73690553  0.27358130    -0.52100
C106        C  0.50143300  0.72774021  0.36108748     0.70000
O107        O  0.51050176  0.74504757  0.36196279    -0.46900
C108        C  0.45793346  0.73594649  0.39163940     0.74700
O109        O  0.50943531  0.77406233  0.37051067    -0.58800
O110        O  0.45764073  0.73935965  0.35131747    -0.48900
O111        O  0.48880125  0.77540510  0.33549025    -0.55200
C112        C  0.48703457  0.74660047  0.25050602     0.84800
O113        O  0.48534463  0.72099437  0.34676315    -0.57100
O114        O  0.47310229  0.73852414  0.40451292    -0.60400
C115        C  0.33747911  0.67174074  0.56402201    -0.02800
In116      In  0.26337531  0.74232120  0.32791226     1.36900
C117        C  0.22879142  0.71903274  0.35232593     0.77300
O118        O  0.25302639  0.74743847  0.26478535    -0.61200
O119        O  0.27172528  0.73820178  0.26003124    -0.52100
C120        C  0.28231770  0.77785452  0.34770125     0.70000
O121        O  0.26596916  0.76728753  0.35982316    -0.46900
C122        C  0.28078651  0.72996650  0.37716681     0.74700
O123        O  0.23560691  0.73614019  0.35055740    -0.58800
O124        O  0.27807673  0.72686670  0.33646053    -0.48900
O125        O  0.23952756  0.71378886  0.34063746    -0.55200
C126        C  0.26214541  0.74327943  0.24005118     0.84800
O127        O  0.28891335  0.77022795  0.32509167    -0.57100
O128        O  0.27458864  0.73946732  0.39245510    -0.60400
C129        C  0.63148490  0.10819997  0.99323798     0.86200
C130        C  0.62804860  0.08885807  0.98203470    -0.54000
C131        C  0.61309757  0.07472040  0.00334426     0.09100
C132        C  0.60334590  0.08134467  0.03410218     0.20100
C133        C  0.61325326  0.10675241  0.98275572    -0.54800
C134        C  0.59863429  0.09304349  0.00429792     0.09200
C135        C  0.63288430  0.10887163  0.04367623    -0.54300
C136        C  0.61823201  0.09495589  0.06583172     0.09800
H137        H  0.63632071  0.08624735  0.95966752     0.14300
H138        H  0.59159750  0.06980441  0.05080401     0.00000
H139        H  0.61209093  0.11636908  0.96136234     0.14600
H140        H  0.64467443  0.11994136  0.06013554     0.14400
C141        C  0.53539500  0.90708748  0.97341172     0.86200
C142        C  0.55201705  0.92550671  0.98811545    -0.54000
C143        C  0.55461587  0.94039842  0.96444890     0.09100
C144        C  0.54009031  0.93562493  0.92876862     0.20100
C145        C  0.51912743  0.91031190  0.97589520    -0.54800
C146        C  0.52156458  0.92512646  0.95253754     0.09200
C147        C  0.53788936  0.90607686  0.92338623    -0.54300
C148        C  0.54059429  0.92107255  0.90005590     0.09800
H149        H  0.56084841  0.92665755  0.01514206     0.14300
H150        H  0.54197973  0.94772400  0.91007732     0.00000
H151        H  0.50608596  0.90134454  0.99161899     0.14600
H152        H  0.53668696  0.89406857  0.90770274     0.14400
C153        C  0.53476462  0.90373436  0.49866248     0.86200
C154        C  0.51624496  0.90239668  0.49195154    -0.54000
C155        C  0.51455481  0.91573374  0.51216306     0.09100
C156        C  0.53171704  0.92942906  0.53779337     0.20100
C157        C  0.54935560  0.92343066  0.48432578    -0.54800
C158        C  0.54750086  0.93676766  0.50430304     0.09200
C159        C  0.53707937  0.90430015  0.54918852    -0.54300
C160        C  0.53508413  0.91740805  0.56955454     0.09800
H161        H  0.50526956  0.89160715  0.47269877     0.14300
H162        H  0.53063722  0.94051054  0.55392846     0.00000
H163        H  0.56002348  0.92656202  0.46028072     0.14600
H164        H  0.54048868  0.89575730  0.56832732     0.14400
C165        C  0.63360471  0.10710955  0.47124922     0.86200
C166        C  0.61577091  0.10750209  0.47316612    -0.54000
C167        C  0.60155656  0.09393020  0.45009981     0.09100
C168        C  0.60623682  0.08076378  0.42752553     0.20100
C169        C  0.62799811  0.08756537  0.48691676    -0.54800
C170        C  0.61358614  0.07382808  0.46408947     0.09200
C171        C  0.63710409  0.10698597  0.42105426    -0.54300
C172        C  0.62284771  0.09315038  0.39877835     0.09800
H173        H  0.61453575  0.11776149  0.49137461     0.14300
H174        H  0.59468186  0.06967127  0.40872211     0.00000
H175        H  0.63487689  0.08485515  0.51325075     0.14600
H176        H  0.64897406  0.11718601  0.40295921     0.14400
C177        C  0.89966022  0.37083072  0.46793413     0.86200
C178        C  0.91765051  0.37296976  0.48512784    -0.54000
C179        C  0.93294167  0.38621212  0.46370544     0.09100
C180        C  0.92904572  0.39604173  0.42671141     0.20100
C181        C  0.90260178  0.39027531  0.46955654    -0.54800
C182        C  0.91813920  0.40367390  0.44891359     0.09200
C183        C  0.89989026  0.36754797  0.41802217    -0.54300
C184        C  0.91521169  0.38059769  0.39680227     0.09800
H185        H  0.91827611  0.36526066  0.51293123     0.14300
H186        H  0.94173935  0.40640897  0.40969382     0.00000
H187        H  0.89307657  0.39316837  0.48610043     0.14600
H188        H  0.88876564  0.35688571  0.39921392     0.14400
C189        C  0.10108480  0.46343679  0.50727547     0.86200
C190        C  0.08192109  0.44903593  0.49032806    -0.54000
C191        C  0.06793868  0.44856179  0.51364586     0.09100
C192        C  0.07424280  0.46252169  0.55150743     0.20100
C193        C  0.10066843  0.48136538  0.50535912    -0.54800
C194        C  0.08703809  0.48103423  0.52942299     0.09200
C195        C  0.10073446  0.45914852  0.55636248    -0.54300
C196        C  0.08707124  0.45905684  0.58001511     0.09800
H197        H  0.07927294  0.44083796  0.46112983     0.14300
H198        H  0.06293215  0.46240296  0.56987863     0.00000
H199        H  0.11045294  0.49344532  0.48673835     0.14600
H200        H  0.11142935  0.45771986  0.57174043     0.14400
C201        C  0.10845020  0.48531499  0.98202573     0.86200
C202        C  0.11021342  0.50414530  0.97818124    -0.54000
C203        C  0.09817856  0.50463898  0.94997607     0.09100
C204        C  0.08486570  0.48606504  0.92880974     0.20100
C205        C  0.08803892  0.47244281  0.99597303    -0.54800
C206        C  0.07539664  0.47269737  0.96778826     0.09200
C207        C  0.10913483  0.47936987  0.93472811    -0.54300
C208        C  0.09690236  0.47984293  0.90706455     0.09800
H209        H  0.12006133  0.51609534  0.99668975     0.14300
H210        H  0.07584562  0.48667304  0.90403885     0.00000
H211        H  0.08387933  0.46421210  0.02562926     0.14600
H212        H  0.11887211  0.47558765  0.92379729     0.14400
C213        C  0.90396906  0.37805276  0.98998435     0.86200
C214        C  0.90472617  0.39654667  0.99098455    -0.54000
C215        C  0.91730600  0.40921771  0.01882253     0.09100
C216        C  0.92846072  0.40244439  0.04303419     0.20100
C217        C  0.92398626  0.38413053  0.97742725    -0.54800
C218        C  0.93686589  0.39668229  0.00604573     0.09200
C219        C  0.90186534  0.37176617  0.03810316    -0.54300
C220        C  0.91435488  0.38453779  0.06596297     0.09800
H221        H  0.89622176  0.39957366  0.97030337     0.14300
H222        H  0.93856534  0.41271560  0.06612720     0.00000
H223        H  0.92787509  0.38032345  0.94725294     0.14600
H224        H  0.89121750  0.35821389  0.04904236     0.14400
In225      In  0.74181066  0.49015785  0.83397268     1.36900
C226        C  0.72054357  0.50390048  0.85137122     0.77300
O227        O  0.74743266  0.50455525  0.76810145    -0.61200
O228        O  0.73774008  0.47612047  0.76838734    -0.52100
C229        C  0.77705585  0.50619274  0.85794310     0.70000
O230        O  0.76725901  0.51293988  0.86587945    -0.46900
C231        C  0.72521125  0.45968927  0.88401602     0.74700
O232        O  0.73763063  0.51283042  0.85672071    -0.58800
O233        O  0.72525935  0.45950411  0.84257746    -0.48900
O234        O  0.71435839  0.48793346  0.83670458    -0.55200
C235        C  0.74274551  0.49038161  0.74579061     0.84800
O236        O  0.76884666  0.49133777  0.83696017    -0.57100
O237        O  0.73407878  0.47559529  0.90003758    -0.60400
C238        C  0.66876198  0.33892250  0.05669849    -0.02800
In239      In  0.74463738  0.26747146  0.84599565     1.36900
C240        C  0.78030137  0.28837826  0.86428031     0.77300
O241        O  0.75213612  0.26293656  0.77814107    -0.61200
O242        O  0.73332275  0.27203631  0.78316223    -0.52100
C243        C  0.72419888  0.23157418  0.86446679     0.70000
O244        O  0.74124087  0.24087984  0.87059360    -0.46900
C245        C  0.73157235  0.28203065  0.90258062     0.74700
O246        O  0.77147509  0.27117067  0.86844951    -0.58800
O247        O  0.73468449  0.28664788  0.86257642    -0.48900
O248        O  0.77095871  0.29480090  0.84944034    -0.55200
C249        C  0.74207460  0.26741879  0.75831631     0.84800
O250        O  0.71777179  0.24072311  0.84805996    -0.57100
O251        O  0.73492023  0.26975593  0.91350123    -0.60400
In252      In  0.74427018  0.49114021  0.60938061     1.36900
C253        C  0.78024302  0.50846561  0.59116202     0.77300
O254        O  0.74841743  0.50491383  0.67509881    -0.61200
O255        O  0.73818697  0.47632680  0.67487502    -0.52100
C256        C  0.72198371  0.50384880  0.59024699     0.70000
O257        O  0.73915080  0.51403733  0.59274900    -0.46900
C258        C  0.73146206  0.46150657  0.55763119     0.74700
O259        O  0.76965240  0.51303777  0.57442635    -0.58800
O260        O  0.72988216  0.46049050  0.59900240    -0.48900
O261        O  0.77233764  0.49495534  0.61706107    -0.55200
C262        C  0.74310590  0.49051888  0.69742388     0.84800
O263        O  0.71634704  0.48719767  0.59789045    -0.57100
O264        O  0.73960760  0.47771632  0.54283515    -0.60400
C265        C  0.66269057  0.33956179  0.40018894    -0.02800
In266      In  0.73903351  0.26709247  0.62232732     1.36900
C267        C  0.71755984  0.23131211  0.60366097     0.77300
O268        O  0.74856217  0.26133428  0.68601589    -0.61200
O269        O  0.73181416  0.27292505  0.68959969    -0.52100
C270        C  0.77422156  0.28893402  0.60034559     0.70000
O271        O  0.76511980  0.27211381  0.59078617    -0.46900
C272        C  0.72483047  0.28247763  0.57163527     0.74700
O273        O  0.73475704  0.23977092  0.60052703    -0.58800
O274        O  0.72326567  0.28147388  0.61304278    -0.48900
O275        O  0.71135309  0.24111853  0.61641137    -0.55200
C276        C  0.74074217  0.26722292  0.71016366     0.84800
O277        O  0.76531956  0.29449890  0.62159186    -0.57100
O278        O  0.73367967  0.27556121  0.55645187    -0.60400
C279        C  0.10259630  0.65127642  0.94348249     0.86200
C280        C  0.08305745  0.64407707  0.96101871    -0.54000
C281        C  0.06981311  0.62860036  0.94037959     0.09100
C282        C  0.07725899  0.62194390  0.90316046     0.20100
C283        C  0.10527539  0.63477161  0.94517334    -0.54800
C284        C  0.09211391  0.61940197  0.92464920     0.09200
C285        C  0.10104610  0.65401158  0.89372656    -0.54300
C286        C  0.08794118  0.63870074  0.87258879     0.09800
H287        H  0.07997036  0.65068947  0.98727395     0.14300
H288        H  0.06646469  0.60950124  0.88637781     0.00000
H289        H  0.11683086  0.63526273  0.96156518     0.14600
H290        H  0.10972836  0.66641783  0.87520118     0.14400
C291        C  0.90064478  0.54228140  0.98408233     0.86200
C292        C  0.91938438  0.55897357  0.97018283    -0.54000
C293        C  0.93387735  0.56048190  0.99309813     0.09100
C294        C  0.92850526  0.54515921  0.02758171     0.20100
C295        C  0.90356597  0.52600407  0.97821682    -0.54800
C296        C  0.91773915  0.52719042  0.00180272     0.09200
C297        C  0.89975887  0.54440688  0.03421695    -0.54300
C298        C  0.91403421  0.54544952  0.05723322     0.09800
H299        H  0.92157529  0.56832326  0.94341365     0.14300
H300        H  0.94024423  0.54624018  0.04596365     0.00000
H301        H  0.89462933  0.51407347  0.95847531     0.14600
H302        H  0.88852102  0.54474433  0.05005790     0.14400
C303        C  0.90055380  0.53703810  0.46037232     0.86200
C304        C  0.90050801  0.51906307  0.46707768    -0.54000
C305        C  0.91388231  0.51819679  0.44451740     0.09100
C306        C  0.92642842  0.53558399  0.41765459     0.20100
C307        C  0.92027366  0.55215957  0.47366854    -0.54800
C308        C  0.93374314  0.55122389  0.45111794     0.09200
C309        C  0.90048465  0.53969958  0.41023483    -0.54300
C310        C  0.91373502  0.53858283  0.38789839     0.09800
H311        H  0.89093942  0.50816617  0.48895848     0.14300
H312        H  0.93735673  0.53494965  0.39927363     0.00000
H313        H  0.92366024  0.56281693  0.49757375     0.14600
H314        H  0.89071066  0.54223933  0.39373991     0.14400
C315        C  0.10312764  0.62991946  0.47202957     0.86200
C316        C  0.10273870  0.61164891  0.47734090    -0.54000
C317        C  0.08841969  0.59855444  0.50142106     0.09100
C318        C  0.07623244  0.60519717  0.52082096     0.20100
C319        C  0.08387988  0.62435424  0.45513870    -0.54800
C320        C  0.06981813  0.61140808  0.48069692     0.09200
C321        C  0.10358438  0.63572114  0.52016960    -0.54300
C322        C  0.08942015  0.62297317  0.54532848     0.09800
H323        H  0.11323970  0.60925691  0.46488017     0.14300
H324        H  0.06482982  0.59487452  0.54179122     0.00000
H325        H  0.08160774  0.63015386  0.42567703     0.14600
H326        H  0.11451619  0.64839886  0.53400216     0.14400
C327        C  0.46081833  0.36911982  0.01292245     0.86200
C328        C  0.44601164  0.37342448  0.99940782    -0.54000
C329        C  0.44728837  0.38826342  0.02034521     0.09100
C330        C  0.46326107  0.39746568  0.05321753     0.20100
C331        C  0.47911638  0.38719467  0.00593901    -0.54800
C332        C  0.48029930  0.40195401  0.02633747     0.09200
C333        C  0.45892798  0.36719098  0.06377382    -0.54300
C334        C  0.46031161  0.38203802  0.08478528     0.09800
H335        H  0.43580066  0.36576368  0.97448168     0.14300
H336        H  0.46462768  0.40967701  0.06995922     0.00000
H337        H  0.49031405  0.38823600  0.98644463     0.14600
H338        H  0.45699886  0.35557577  0.08282343     0.14400
C339        C  0.63457056  0.53842220  0.98526323     0.86200
C340        C  0.61607444  0.52050183  0.97832876    -0.54000
C341        C  0.60150426  0.51994243  0.99858388     0.09100
C342        C  0.60674390  0.53726088  0.02512584     0.20100
C343        C  0.63139603  0.55394023  0.97153910    -0.54800
C344        C  0.61705814  0.55347997  0.99273233     0.09200
C345        C  0.63618944  0.54002596  0.03607901    -0.54300
C346        C  0.62134319  0.53869639  0.05699001     0.09800
H347        H  0.61475367  0.50891990  0.96013586     0.14300
H348        H  0.59487992  0.53673246  0.04168335     0.00000
H349        H  0.63994250  0.56456327  0.94783695     0.14600
H350        H  0.64757082  0.54159291  0.05507432     0.14400
C351        C  0.36838377  0.47582579  0.97553471     0.86200
C352        C  0.37055433  0.45954427  0.99033749    -0.54000
C353        C  0.38367747  0.45824717  0.96724603     0.09100
C354        C  0.39310007  0.47292786  0.93116107     0.20100
C355        C  0.38796574  0.49253457  0.97899829    -0.54800
C356        C  0.40102075  0.49129874  0.95555058     0.09200
C357        C  0.36454865  0.47275053  0.92613868    -0.54300
C358        C  0.37737557  0.47131501  0.90302677     0.09800
H359        H  0.36286487  0.44990805  0.01643141     0.14300
H360        H  0.40334637  0.47134709  0.91249683     0.00000
H361        H  0.39112224  0.50448582  0.99843893     0.14600
H362        H  0.35289572  0.47230050  0.91040746     0.14400
C363        C  0.54005554  0.64279213  0.96972682     0.86200
C364        C  0.52188471  0.62450585  0.97596648    -0.54000
C365        C  0.52115731  0.60992923  0.95550225     0.09100
C366        C  0.53874867  0.61481280  0.93046205     0.20100
C367        C  0.55500287  0.63893311  0.98462334    -0.54800
C368        C  0.55419688  0.62432744  0.96396715     0.09200
C369        C  0.54235909  0.64472210  0.91898035    -0.54300
C370        C  0.54174438  0.63011481  0.89863005     0.09800
H371        H  0.51043581  0.62324165  0.99475525     0.14300
H372        H  0.53847652  0.60298442  0.91440615     0.00000
H373        H  0.56530952  0.64703430  0.00902152     0.14600
H374        H  0.54412583  0.65618543  0.89956165     0.14400
C375        C  0.46837601  0.37149785  0.48652659     0.86200
C376        C  0.48696458  0.38961816  0.48912061    -0.54000
C377        C  0.48740886  0.40412445  0.46853687     0.09100
C378        C  0.46927671  0.39936709  0.44702241     0.20100
C379        C  0.45427036  0.37609674  0.50436327    -0.54800
C380        C  0.45489651  0.39071302  0.48372030     0.09200
C381        C  0.46469524  0.36906188  0.43628573    -0.54300
C382        C  0.46500045  0.38355747  0.41601461     0.09800
H383        H  0.49881218  0.39084419  0.50568382     0.14300
H384        H  0.46962447  0.41119597  0.43036425     0.00000
H385        H  0.44468691  0.36850065  0.53080450     0.14600
H386        H  0.46314923  0.35775291  0.41683762     0.14400
C387        C  0.63795566  0.54263461  0.45710280     0.86200
C388        C  0.63482273  0.55786055  0.47448021    -0.54000
C389        C  0.62044521  0.55809978  0.45510580     0.09100
C390        C  0.61067286  0.54333189  0.41975608     0.20100
C391        C  0.61923957  0.52478372  0.46190454    -0.54800
C392        C  0.60479476  0.52507579  0.44327297     0.09200
C393        C  0.64001188  0.54586923  0.40669641    -0.54300
C394        C  0.62576225  0.54614811  0.38746326     0.09800
H395        H  0.64275782  0.56705731  0.50093344     0.14300
H396        H  0.59943555  0.54415776  0.40404174     0.00000
H397        H  0.61761615  0.51283808  0.47924551     0.14600
H398        H  0.65079504  0.54668965  0.38631848     0.14400
C399        C  0.37153983  0.47341610  0.49531891     0.86200
C400        C  0.38926240  0.49247755  0.49157779    -0.54000
C401        C  0.40318282  0.49479292  0.51806149     0.09100
C402        C  0.39831982  0.47769963  0.54565623     0.20100
C403        C  0.37771563  0.45972144  0.48612173    -0.54800
C404        C  0.39164405  0.46190044  0.51249240     0.09200
C405        C  0.36723998  0.47162897  0.54510986    -0.54300
C406        C  0.38120305  0.47390630  0.57151521     0.09800
H407        H  0.39074572  0.50340385  0.47021790     0.14300
H408        H  0.40976994  0.47951333  0.56664466     0.00000
H409        H  0.37158217  0.44918840  0.46108701     0.14600
H410        H  0.35450492  0.46936164  0.55863728     0.14400
C411        C  0.54321134  0.64751195  0.49747364     0.86200
C412        C  0.55612781  0.64119319  0.48051142    -0.54000
C413        C  0.55511237  0.62698041  0.50428289     0.09100
C414        C  0.54117697  0.62016165  0.54232640     0.20100
C415        C  0.52404413  0.63001206  0.49888694    -0.54800
C416        C  0.52297289  0.61561761  0.52147079     0.09200
C417        C  0.54843347  0.65169918  0.54664419    -0.54300
C418        C  0.54674395  0.63722288  0.57034774     0.09800
H419        H  0.56546019  0.64759620  0.45293193     0.14300
H420        H  0.54031778  0.60840060  0.56046244     0.00000
H421        H  0.51223408  0.62903941  0.48268799     0.14600
H422        H  0.55298619  0.66464838  0.56251897     0.14400
In423      In  0.26136753  0.51910050  0.36592409     1.36900
C424        C  0.28371855  0.50651554  0.38112470     0.77300
O425        O  0.25465342  0.50516230  0.29990174    -0.61200
O426        O  0.26753981  0.53413913  0.30094896    -0.52100
C427        C  0.22591192  0.50197477  0.38642796     0.70000
O428        O  0.23608213  0.49598926  0.39776736    -0.46900
C429        C  0.27489963  0.54795408  0.42034586     0.74700
O430        O  0.26661487  0.49680580  0.38625087    -0.58800
O431        O  0.27476013  0.54938318  0.37902621    -0.48900
O432        O  0.28929029  0.52251481  0.36702571    -0.55200
C433        C  0.26091358  0.51981501  0.27802909     0.84800
O434        O  0.23395884  0.51677672  0.36484133    -0.57100
O435        O  0.26786931  0.53164095  0.43370000    -0.60400
In436      In  0.25908268  0.52067364  0.14196546     1.36900
C437        C  0.22328966  0.50573470  0.12675204     0.77300
O438        O  0.25428439  0.50585493  0.20684273    -0.61200
O439        O  0.26591041  0.53469205  0.20789407    -0.52100
C440        C  0.27977360  0.50726336  0.11503073     0.70000
O441        O  0.26254484  0.49828824  0.11303939    -0.46900
C442        C  0.27318851  0.55029150  0.08945559     0.74700
O443        O  0.23230728  0.49865703  0.11373323    -0.58800
O444        O  0.27635082  0.55128227  0.13020042    -0.48900
O445        O  0.23257835  0.52028727  0.14838677    -0.55200
C446        C  0.26039374  0.52013520  0.22974979     0.84800
O447        O  0.28631766  0.52274518  0.13284224    -0.57100
O448        O  0.26236835  0.53423323  0.07622319    -0.60400
C449        C  0.32531213  0.50380740  0.41371275    -0.11700
C450        C  0.31871683  0.48502770  0.40837497     0.14900
C451        C  0.30058042  0.47341804  0.39369785     0.01800
C452        C  0.28945200  0.48076076  0.38560744    -0.16000
C453        C  0.29607974  0.49957304  0.39089757    -0.10800
C454        C  0.31426820  0.51117001  0.40540540     0.08500
C455        C  0.33067700  0.47804865  0.42265303     0.09500
S456        S  0.29093375  0.44925511  0.38392754    -0.25200
H457        H  0.27556816  0.47173061  0.37431708     0.19800
S458        S  0.32391543  0.53519872  0.41686348    -0.30900
H459        H  0.33904917  0.51273645  0.42605394     0.10100
C460        C  0.34821753  0.48490331  0.40427672     0.03300
C461        C  0.36064785  0.48131580  0.42544214    -0.13200
C462        C  0.35603550  0.47121754  0.46518203    -0.08800
C463        C  0.33722107  0.46119642  0.47740470     0.06700
C464        C  0.32506703  0.46549421  0.45769044    -0.13900
S465        S  0.35488383  0.49853028  0.35441315    -0.30900
H466        H  0.37430355  0.48717044  0.41199755     0.11000
S467        S  0.32734715  0.44183676  0.51473844    -0.28000
H468        H  0.31117490  0.45913994  0.47013195     0.08200
H469        H  0.30801832  0.53277119  0.43729023     0.26700
H470        H  0.37248130  0.50105328  0.35067398     0.21500
H471        H  0.34105346  0.43756470  0.50853010     0.26800
H472        H  0.30759354  0.45051135  0.37325676     0.15600
C473        C  0.44002007  0.54555251  0.52321808    -0.11700
C474        C  0.45593928  0.54471581  0.52009879     0.14900
C475        C  0.45455330  0.52748441  0.51826077     0.01800
C476        C  0.43721777  0.51146499  0.51867847    -0.16000
C477        C  0.42117527  0.51224995  0.52033610    -0.10800
C478        C  0.42266332  0.52957583  0.52365212     0.08500
C479        C  0.47369304  0.56221175  0.51968404     0.09500
S480        S  0.47429141  0.52500170  0.51536826    -0.25200
H481        H  0.43625133  0.49828428  0.51652773     0.19800
S482        S  0.40280140  0.53168457  0.53124154    -0.30900
H483        H  0.44130457  0.55885873  0.52572826     0.10100
C484        C  0.48038429  0.57285595  0.48104596     0.03300
C485        C  0.49653182  0.59007556  0.48265490    -0.13200
C486        C  0.50599653  0.59711884  0.52237975    -0.08800
C487        C  0.49906372  0.58633464  0.56115110     0.06700
C488        C  0.48319726  0.56893564  0.55919825    -0.13900
S489        S  0.46829622  0.56445876  0.42971497    -0.30900
H490        H  0.50182103  0.59812519  0.45276215     0.11000
S491        S  0.50867759  0.59446111  0.61471412    -0.28000
H492        H  0.47776123  0.56087155  0.58908275     0.08200
H493        H  0.41187818  0.55092966  0.52835913     0.26700
H494        H  0.48047612  0.57967221  0.40370580     0.21500
H495        H  0.51045040  0.61162357  0.60801874     0.26800
H496        H  0.48608599  0.54182414  0.49430386     0.15600
C497        C  0.61492127  0.59899385  0.48158868    -0.11700
C498        C  0.59579934  0.59007353  0.48636240     0.14900
C499        C  0.58535387  0.57072230  0.48472124     0.01800
C500        C  0.59398990  0.56090418  0.47584819    -0.16000
C501        C  0.61299820  0.56976454  0.46905391    -0.10800
C502        C  0.62364367  0.58910952  0.47296723     0.08500
C503        C  0.58685135  0.60111857  0.48957209     0.09500
S504        S  0.56088354  0.55767894  0.49321510    -0.25200
H505        H  0.58567685  0.54607411  0.47400165     0.19800
S506        S  0.64812976  0.60219764  0.46523591    -0.30900
H507        H  0.62304349  0.61384280  0.48288537     0.10100
C508        C  0.58925298  0.61219892  0.52632608     0.03300
C509        C  0.57939363  0.62123707  0.52897423    -0.13200
C510        C  0.56680621  0.61907145  0.49635453    -0.08800
C511        C  0.56468313  0.60827263  0.45920784     0.06700
C512        C  0.57496322  0.59974446  0.45582728    -0.13900
S513        S  0.60400943  0.61402673  0.57105777    -0.30900
H514        H  0.58128619  0.62984947  0.55688786     0.11000
S515        S  0.54860913  0.60421504  0.41596066    -0.28000
H516        H  0.57312193  0.59130785  0.42742549     0.08200
H517        H  0.64891517  0.59074765  0.43334569     0.26700
H518        H  0.60072161  0.62545682  0.59793519     0.21500
H519        H  0.53520255  0.60407374  0.44311600     0.26800
H520        H  0.56028289  0.57014072  0.52238242     0.15600
C521        C  0.41670107  0.43862086  0.47126938    -0.11700
C522        C  0.41381808  0.42655388  0.50623723     0.14900
C523        C  0.40355807  0.42620969  0.54318512     0.01800
C524        C  0.39663388  0.43797708  0.54444906    -0.16000
C525        C  0.39960208  0.45006245  0.50953996    -0.10800
C526        C  0.40976246  0.45035047  0.47251008     0.08500
C527        C  0.42260014  0.41537121  0.50382011     0.09500
S528        S  0.39855022  0.41091293  0.58934047    -0.25200
H529        H  0.38842911  0.43731756  0.57235340     0.19800
S530        S  0.41459954  0.46549173  0.42608666    -0.30900
H531        H  0.42475350  0.43914319  0.44304403     0.10100
C532        C  0.41806682  0.40226621  0.47037412     0.03300
C533        C  0.42836251  0.39378975  0.46562874    -0.13200
C534        C  0.44275422  0.39776537  0.49435120    -0.08800
C535        C  0.44670602  0.41010506  0.52917840     0.06700
C536        C  0.43667105  0.41890572  0.53342330    -0.13900
S537        S  0.39916319  0.39631379  0.43375267    -0.30900
H538        H  0.42548593  0.38432593  0.43890477     0.11000
S539        S  0.46512336  0.41533401  0.56675885    -0.28000
H540        H  0.44013909  0.42900733  0.55894238     0.08200
H541        H  0.41532200  0.47995083  0.44986192     0.26700
H542        H  0.40073095  0.38325590  0.40900182     0.21500
H543        H  0.46227609  0.42679252  0.59463085     0.26800
H544        H  0.39859856  0.39683714  0.56541573     0.15600
C545        C  0.53636955  0.44344905  0.45255883    -0.11700
C546        C  0.53487199  0.45840538  0.46546260     0.14900
C547        C  0.51768802  0.45555340  0.47823110     0.01800
C548        C  0.50239549  0.43773800  0.47817575    -0.16000
C549        C  0.50393223  0.42268251  0.46610888    -0.10800
C550        C  0.52108234  0.42569127  0.45205445     0.08500
C551        C  0.55141143  0.47682564  0.46237720     0.09500
S552        S  0.51430671  0.47399605  0.49413525    -0.25200
H553        H  0.48923101  0.43558434  0.48822880     0.19800
S554        S  0.52420725  0.40777585  0.43045196    -0.30900
H555        H  0.54949666  0.44573670  0.44160039     0.10100
C556        C  0.56405456  0.48397894  0.49690212     0.03300
C557        C  0.58081916  0.50027440  0.49021878    -0.13200
C558        C  0.58549242  0.50946285  0.44923734    -0.08800
C559        C  0.57203582  0.50278869  0.41557975     0.06700
C560        C  0.55523699  0.48647888  0.42267688    -0.13900
S561        S  0.55895475  0.47204981  0.54908025    -0.30900
H562        H  0.59054474  0.50567165  0.51693634     0.11000
S563        S  0.57583556  0.51382472  0.36258526    -0.28000
H564        H  0.54518687  0.48074851  0.39665950     0.08200
H565        H  0.50701831  0.39807732  0.40993043     0.26700
H566        H  0.57532797  0.48469381  0.57022240     0.21500
H567        H  0.55857596  0.50182973  0.34420286     0.26800
H568        H  0.53207753  0.48589059  0.50981729     0.15600
C569        C  0.53697894  0.61638303  0.77789440    -0.11700
C570        C  0.55100074  0.63270318  0.75906508     0.14900
C571        C  0.56257693  0.64756321  0.78623931     0.01800
C572        C  0.55944487  0.64607834  0.83151825    -0.16000
C573        C  0.54495526  0.63003146  0.85060550    -0.10800
C574        C  0.53372142  0.61485208  0.82339426     0.08500
C575        C  0.55129148  0.63476111  0.71091207     0.09500
S576        S  0.58106969  0.66900927  0.76487656    -0.25200
H577        H  0.56832616  0.65769341  0.85206665     0.19800
S578        S  0.51418526  0.59414537  0.84494882    -0.30900
H579        H  0.52801951  0.60518271  0.75644228     0.10100
C580        C  0.55805243  0.62651683  0.68288805     0.03300
C581        C  0.55689261  0.62805492  0.63726676    -0.13200
C582        C  0.54872120  0.63731944  0.61901223    -0.08800
C583        C  0.54157051  0.64523267  0.64782093     0.06700
C584        C  0.54339477  0.64423067  0.69317002    -0.13900
S585        S  0.56811432  0.61405702  0.70527439    -0.30900
H586        H  0.56211794  0.62171208  0.61588480     0.11000
S587        S  0.52841082  0.65526015  0.63026267    -0.28000
H588        H  0.53778607  0.65014002  0.71508905     0.08200
H589        H  0.50793730  0.58479534  0.80481483     0.26700
H590        H  0.57169192  0.60853171  0.66479007     0.21500
H591        H  0.51905410  0.64264744  0.59643927     0.26800
H592        H  0.58442269  0.66161208  0.72726117     0.15600
C593        C  0.29811610  0.48268397  0.04627513    -0.11700
C594        C  0.31560225  0.48977211  0.06426205     0.14900
C595        C  0.32096136  0.50205180  0.09989334     0.01800
C596        C  0.30896709  0.50735852  0.11586937    -0.16000
C597        C  0.29151623  0.50052645  0.09753008    -0.10800
C598        C  0.28611077  0.48800012  0.06215841     0.08500
C599        C  0.32858445  0.48565262  0.04218552     0.09500
S600        S  0.34311722  0.51189264  0.12548369    -0.25200
H601        H  0.31333595  0.51693937  0.14295331     0.19800
S602        S  0.26473159  0.47933528  0.03359978    -0.30900
H603        H  0.29408614  0.47351018  0.01840486     0.10100
C604        C  0.32944750  0.47004365  0.05289181     0.03300
C605        C  0.34232887  0.46703075  0.03167352    -0.13200
C606        C  0.35426228  0.47913996  0.99881543    -0.08800
C607        C  0.35258306  0.49447285  0.98701432     0.06700
C608        C  0.34003866  0.49759852  0.00929143    -0.13900
S609        S  0.31421125  0.45409027  0.09415013    -0.30900
H610        H  0.34270391  0.45503231  0.04096896     0.11000
S611        S  0.36619739  0.51037706  0.94342548    -0.28000
H612        H  0.33903605  0.50943546  0.00102130     0.08200
H613        H  0.26630837  0.49659738  0.03011977     0.26700
H614        H  0.31963609  0.44113069  0.08963315     0.21500
H615        H  0.35711492  0.52023599  0.94174783     0.26800
H616        H  0.34579641  0.49724174  0.11690665     0.15600
C617        C  0.37011527  0.45481215  0.78488320    -0.11700
C618        C  0.37919514  0.47164993  0.76217446     0.14900
C619        C  0.38697471  0.48816243  0.78624024     0.01800
C620        C  0.38526800  0.48744054  0.83196370    -0.16000
C621        C  0.37711088  0.47068492  0.85466538    -0.10800
C622        C  0.36904367  0.45412559  0.83087762     0.08500
C623        C  0.37939683  0.47163491  0.71345099     0.09500
S624        S  0.39984867  0.51057438  0.76090940    -0.25200
H625        H  0.39104140  0.50013851  0.85025237     0.19800
S626        S  0.35687755  0.43172574  0.85650430    -0.30900
H627        H  0.36368587  0.44210260  0.76654977     0.10100
C628        C  0.38806101  0.46408318  0.68942899     0.03300
C629        C  0.38828178  0.46494816  0.64334155    -0.13200
C630        C  0.38035986  0.47352568  0.62052833    -0.08800
C631        C  0.37216955  0.48158132  0.64511778     0.06700
C632        C  0.37124661  0.47995600  0.69090559    -0.13900
S633        S  0.39955911  0.45405291  0.71725219    -0.30900
H634        H  0.39481397  0.45902690  0.62513613     0.11000
S635        S  0.36413778  0.49559691  0.62141675    -0.28000
H636        H  0.36478508  0.48597406  0.70940692     0.08200
H637        H  0.35362268  0.43702942  0.89751512     0.26700
H638        H  0.40522578  0.44886554  0.67933423     0.21500
H639        H  0.37779707  0.50327976  0.58890280     0.26800
H640        H  0.40702700  0.50521601  0.72632098     0.15600
C641        C  0.45023480  0.52790041  0.92280689    -0.11700
C642        C  0.45641471  0.53766346  0.96208970     0.14900
C643        C  0.44526036  0.53110684  0.99990625     0.01800
C644        C  0.42778731  0.51546288  0.99699500    -0.16000
C645        C  0.42085760  0.50616842  0.95689584    -0.10800
C646        C  0.43266180  0.51225293  0.91953694     0.08500
C647        C  0.47327337  0.55594107  0.96062978     0.09500
S648        S  0.45200203  0.54273578  0.05209062    -0.25200
H649        H  0.41934887  0.51076223  0.02639875     0.19800
S650        S  0.42572963  0.50136426  0.86658572    -0.30900
H651        H  0.45903921  0.53312466  0.89408499     0.10100
C652        C  0.49065959  0.55849522  0.96911946     0.03300
C653        C  0.50615967  0.57626340  0.96694764    -0.13200
C654        C  0.50454337  0.59137792  0.95557339    -0.08800
C655        C  0.48714043  0.58850519  0.94463478     0.06700
C656        C  0.47171295  0.57092824  0.94823683    -0.13900
S657        S  0.49297429  0.53917294  0.98325335    -0.30900
H658        H  0.51953030  0.57844540  0.97458892     0.11000
S659        S  0.48373988  0.60634771  0.92328682    -0.28000
H660        H  0.45837406  0.56879491  0.94019425     0.08200
H661        H  0.44088464  0.51450583  0.84195104     0.26700
H662        H  0.51212592  0.54914039  0.98799547     0.21500
H663        H  0.50043929  0.61576076  0.90015684     0.26800
H664        H  0.47095742  0.55075073  0.04623030     0.15600
C665        C  0.62520647  0.52950476  0.17811027    -0.11700
C666        C  0.61754958  0.53872386  0.19871768     0.14900
C667        C  0.60962244  0.54651456  0.17237729     0.01800
C668        C  0.61072821  0.54603584  0.12647156    -0.16000
C669        C  0.61903939  0.53741074  0.10581898    -0.10800
C670        C  0.62509514  0.52787195  0.13243351     0.08500
C671        C  0.61867849  0.54043288  0.24741602     0.09500
S672        S  0.59772438  0.55705294  0.19510547    -0.25200
H673        H  0.60501528  0.55250122  0.10695203     0.19800
S674        S  0.63124007  0.51200955  0.11102604    -0.30900
H675        H  0.63097569  0.52311516  0.19790171     0.10100
C676        C  0.61207583  0.52487956  0.27513440     0.03300
C677        C  0.61511805  0.52731913  0.32050215    -0.13200
C678        C  0.62326430  0.54478664  0.33928862    -0.08800
C679        C  0.62934980  0.56027769  0.31192064     0.06700
C680        C  0.62747553  0.55800757  0.26625594    -0.13900
S681        S  0.59899929  0.50187594  0.25339614    -0.30900
H682        H  0.61068070  0.51551527  0.34182612     0.11000
S683        S  0.64003289  0.58319429  0.33337683    -0.28000
H684        H  0.63282623  0.57002967  0.24523532     0.08200
H685        H  0.61865271  0.50597678  0.07616484     0.26700
H686        H  0.59633267  0.49247794  0.29348896     0.21500
H687        H  0.62830013  0.57826362  0.36999667     0.26800
H688        H  0.59140709  0.54599929  0.23316937     0.15600
C689        C  0.59162116  0.61365313  0.94800746    -0.11700
C690        C  0.58580113  0.59886746  0.97729054     0.14900
C691        C  0.57058214  0.59378120  0.00504209     0.01800
C692        C  0.56141416  0.60342439  0.00251720    -0.16000
C693        C  0.56686390  0.61778802  0.97222883    -0.10800
C694        C  0.58226179  0.62310479  0.94500983     0.08500
C695        C  0.59570161  0.58886110  0.97803306     0.09500
S696        S  0.56162989  0.57456924  0.04266724    -0.25200
H697        H  0.54932266  0.59905526  0.02264449     0.19800
S698        S  0.59005384  0.64109804  0.90422875    -0.30900
H699        H  0.60331809  0.61760186  0.92675892     0.10100
C700        C  0.59380105  0.57687104  0.94380557     0.03300
C701        C  0.60211163  0.56638326  0.94785078    -0.13200
C702        C  0.61193451  0.56743971  0.98575118    -0.08800
C703        C  0.61512797  0.58061839  0.01806257     0.06700
C704        C  0.60670917  0.59094677  0.01428606    -0.13900
S705        S  0.57987463  0.57408257  0.89638360    -0.30900
H706        H  0.60038782  0.55682793  0.92226756     0.11000
S707        S  0.63029483  0.58541906  0.06386871    -0.28000
H708        H  0.60865093  0.60061683  0.03987436     0.08200
H709        H  0.58380489  0.65137350  0.92598432     0.26700
H710        H  0.58180963  0.56041795  0.87570830     0.21500
H711        H  0.64136049  0.57981329  0.04331633     0.26800
H712        H  0.56596570  0.56368496  0.01670623     0.15600
C713        C  0.45257029  0.39116162  0.20370639    -0.11700
C714        C  0.46339945  0.38588945  0.22649850     0.14900
C715        C  0.47327934  0.37956916  0.20270400     0.01800
C716        C  0.47213873  0.37874785  0.15678606    -0.16000
C717        C  0.46097080  0.38360988  0.13369778    -0.10800
C718        C  0.45108331  0.38992373  0.15779875     0.08500
C719        C  0.46336191  0.38625588  0.27510210     0.09500
S720        S  0.48767735  0.37242412  0.22850486    -0.25200
H721        H  0.48003810  0.37416709  0.13886580     0.19800
S722        S  0.43546820  0.39551497  0.13272422    -0.30900
H723        H  0.44481537  0.39581411  0.22201160     0.10100
C724        C  0.47744296  0.40089160  0.29890284     0.03300
C725        C  0.47731754  0.39995322  0.34503841    -0.13200
C726        C  0.46335235  0.38466475  0.36771867    -0.08800
C727        C  0.44880703  0.37043300  0.34367438     0.06700
C728        C  0.44905765  0.37133414  0.29772038    -0.13900
S729        S  0.49571258  0.42053068  0.27047339    -0.30900
H730        H  0.48844702  0.41086128  0.36345049     0.11000
S731        S  0.42941623  0.35090678  0.36944599    -0.28000
H732        H  0.43808099  0.36022502  0.27932155     0.08200
H733        H  0.42835403  0.38070477  0.10362109     0.26700
H734        H  0.50416146  0.43103732  0.30819840     0.21500
H735        H  0.42965789  0.35999529  0.40814773     0.26800
H736        H  0.47923695  0.36787665  0.27008093     0.15600
C737        C  0.40219151  0.43090035  0.02295481    -0.11700
C738        C  0.40470051  0.42231871  0.98656257     0.14900
C739        C  0.39881107  0.42435264  0.94467041     0.01800
C740        C  0.39118082  0.43540128  0.94008626    -0.16000
C741        C  0.38922523  0.44455750  0.97608828    -0.10800
C742        C  0.39467746  0.44212000  0.01821321     0.08500
C743        C  0.41541016  0.41326748  0.99299677     0.09500
S744        S  0.40124167  0.41408857  0.89512479    -0.25200
H745        H  0.38736604  0.43742678  0.90758993     0.19800
S746        S  0.39407787  0.45474459  0.06519147    -0.30900
H747        H  0.40704528  0.42951813  0.05479924     0.10100
C748        C  0.43467003  0.42368213  0.99305449     0.03300
C749        C  0.44453631  0.41504321  0.00197004    -0.13200
C750        C  0.43561868  0.39607017  0.01007517    -0.08800
C751        C  0.41620871  0.38552147  0.00882572     0.06700
C752        C  0.40636959  0.39427808  0.00036727    -0.13900
S753        S  0.44669404  0.44803237  0.98152450    -0.30900
H754        H  0.45934658  0.42313788  0.00242139     0.11000
S755        S  0.40294889  0.36109393  0.01898551    -0.28000
H756        H  0.39153836  0.38628604  0.00013307     0.08200
H757        H  0.39964468  0.44648914  0.09672686     0.26700
H758        H  0.46444713  0.45081523  0.98103464     0.21500
H759        H  0.41541082  0.36001047  0.04697216     0.26800
H760        H  0.41126189  0.40657644  0.91192054     0.15600
C761        C  0.52079802  0.44567835  0.98074084    -0.11700
C762        C  0.53075518  0.45369078  0.01912277     0.14900
C763        C  0.52328622  0.44543064  0.06035046     0.01800
C764        C  0.50647396  0.42881023  0.06195783    -0.16000
C765        C  0.49684241  0.42046039  0.02330929    -0.10800
C766        C  0.50386232  0.42933127  0.98240431     0.08500
C767        C  0.54895776  0.47050970  0.01450746     0.09500
S768        S  0.53465965  0.45517866  0.11174803    -0.25200
H769        H  0.50106089  0.42213674  0.09346531     0.19800
S770        S  0.49186486  0.42072593  0.93119983    -0.30900
H771        H  0.52634022  0.45219869  0.94915528     0.10100
C772        C  0.56519819  0.47014520  0.01905027     0.03300
C773        C  0.58213773  0.48639022  0.01301384    -0.13200
C774        C  0.58317185  0.50292458  0.00150062    -0.08800
C775        C  0.56677967  0.50297278  0.99543223     0.06700
C776        C  0.54991421  0.48688650  0.00252976    -0.13900
S777        S  0.56434317  0.44893953  0.03151541    -0.30900
H778        H  0.59464086  0.48625992  0.01774924     0.11000
S779        S  0.56644266  0.52269159  0.97547786    -0.28000
H780        H  0.53738654  0.48700516  0.99770445     0.08200
H781        H  0.47416289  0.41191695  0.94943235     0.26700
H782        H  0.58334318  0.45609886  0.03009556     0.21500
H783        H  0.58014925  0.52681250  0.94401799     0.26800
H784        H  0.54430361  0.47356279  0.09750001     0.15600
C785        C  0.01846131  0.57937976  0.46625424    -0.11700
C786        C  0.01235079  0.59180182  0.46568531     0.14900
C787        C  0.02527265  0.61080850  0.46767553     0.01800
C788        C  0.04400752  0.61690849  0.47005754    -0.16000
C789        C  0.05010799  0.60441459  0.47216104    -0.10800
C790        C  0.03710861  0.58541331  0.46971349     0.08500
C791        C  0.99235755  0.58411137  0.46240095     0.09500
S792        S  0.01879086  0.62790169  0.46789150    -0.25200
H793        H  0.05384418  0.63149628  0.47197694     0.19800
S794        S  0.04401051  0.56863651  0.46895782    -0.30900
H795        H  0.00847497  0.56484578  0.46387427     0.10100
C796        C  0.98378128  0.58144028  0.42129876     0.03300
C797        C  0.96459575  0.57154231  0.41909095    -0.13200
C798        C  0.95375357  0.56383292  0.45701800    -0.08800
C799        C  0.96243818  0.56670552  0.49825492     0.06700
C800        C  0.98159008  0.57703225  0.50053175    -0.13900
S801        S  0.99726683  0.58975064  0.37144894    -0.30900
H802        H  0.95796733  0.56927082  0.38745064     0.11000
S803        S  0.95006846  0.55620847  0.54844745    -0.28000
H804        H  0.98820953  0.57870907  0.53201168     0.08200
H805        H  0.02640170  0.55292928  0.47246897     0.26700
H806        H  0.98251366  0.58168675  0.34188074     0.21500
H807        H  0.93760053  0.53925962  0.52920681     0.26800
H808        H  0.00118300  0.61673592  0.48579856     0.15600
C809        C  0.90137817  0.53533020  0.17911324    -0.11700
C810        C  0.91822568  0.54689856  0.19915972     0.14900
C811        C  0.93381216  0.55778261  0.17267675     0.01800
C812        C  0.93200572  0.55708946  0.12677261    -0.16000
C813        C  0.91504480  0.54565066  0.10636802    -0.10800
C814        C  0.89970088  0.53421945  0.13343758     0.08500
C815        C  0.91894183  0.54601252  0.24760381     0.09500
S816        S  0.95635904  0.57263178  0.19502772    -0.25200
H817        H  0.94408590  0.56532313  0.10695585     0.19800
S818        S  0.87817483  0.51627678  0.11261447    -0.30900
H819        H  0.88953078  0.52646745  0.19940028     0.10100
C820        C  0.91940788  0.55961856  0.27468524     0.03300
C821        C  0.91798742  0.55700562  0.32046702    -0.13200
C822        C  0.91608952  0.54104076  0.33955653    -0.08800
C823        C  0.91591548  0.52756685  0.31227619     0.06700
C824        C  0.91735801  0.53023081  0.26661882    -0.13900
S825        S  0.92108060  0.57990014  0.25084415    -0.30900
H826        H  0.91814880  0.56730965  0.34155475     0.11000
S827        S  0.91267802  0.50641138  0.33472223    -0.28000
H828        H  0.91681313  0.51979440  0.24531353     0.08200
H829        H  0.88654647  0.51052505  0.08205125     0.26700
H830        H  0.92179509  0.58852783  0.29079232     0.21500
H831        H  0.91163973  0.49785240  0.29445292     0.26800
H832        H  0.95362652  0.56335285  0.23523932     0.15600
C833        C  0.07049696  0.62750876  0.75463778    -0.11700
C834        C  0.08700476  0.63384840  0.73168152     0.14900
C835        C  0.10369115  0.64280431  0.75477849     0.01800
C836        C  0.10347105  0.64438896  0.80037707    -0.16000
C837        C  0.08697967  0.63775323  0.82379448    -0.10800
C838        C  0.07031926  0.62956078  0.80035374     0.08500
C839        C  0.08649606  0.63024148  0.68406621     0.09500
S840        S  0.12570559  0.65203580  0.72822859    -0.25200
H841        H  0.11635178  0.65054533  0.81786212     0.19800
S842        S  0.04854955  0.62191342  0.82649642    -0.30900
H843        H  0.05768162  0.62084270  0.73682399     0.10100
C844        C  0.09016074  0.61694985  0.66805386     0.03300
C845        C  0.09111450  0.61499753  0.62260116    -0.13200
C846        C  0.08782426  0.62555372  0.59279880    -0.08800
C847        C  0.08386238  0.63868720  0.60889443     0.06700
C848        C  0.08331539  0.64093867  0.65438062    -0.13900
S849        S  0.09369663  0.60252010  0.70549840    -0.30900
H850        H  0.09504799  0.60566685  0.61025433     0.11000
S851        S  0.07976765  0.65321595  0.57338495    -0.28000
H852        H  0.08062579  0.65124732  0.66676661     0.08200
H853        H  0.05561389  0.63593671  0.85803393     0.26700
H854        H  0.09634941  0.59228855  0.67327774     0.21500
H855        H  0.07253927  0.64089469  0.53823604     0.26800
H856        H  0.12070699  0.65626521  0.68784687     0.15600
C857        C  0.01954502  0.59282602  0.96067340    -0.11700
C858        C  0.01147087  0.60359467  0.95863930     0.14900
C859        C  0.02289319  0.62282890  0.95373616     0.01800
C860        C  0.04190899  0.63069720  0.94997305    -0.16000
C861        C  0.04990425  0.61981883  0.95039326    -0.10800
C862        C  0.03850880  0.60067957  0.95695002     0.08500
C863        C  0.99123618  0.59426559  0.96386671     0.09500
S864        S  0.01408341  0.63802952  0.95061340    -0.25200
H865        H  0.05047691  0.64538258  0.94485681     0.19800
S866        S  0.04733792  0.58562986  0.96333023    -0.30900
H867        H  0.01097036  0.57814412  0.96591933     0.10100
C868        C  0.97923340  0.58085450  0.93373921     0.03300
C869        C  0.96036676  0.57071304  0.94283795    -0.13200
C870        C  0.95320535  0.57384546  0.98113859    -0.08800
C871        C  0.96498596  0.58846198  0.00890360     0.06700
C872        C  0.98388748  0.59816729  0.00070042    -0.13900
S873        S  0.98791962  0.57656436  0.88380684    -0.30900
H874        H  0.95121469  0.55976620  0.92103269     0.11000
S875        S  0.95675773  0.59588231  0.05415963    -0.28000
H876        H  0.99295813  0.60878568  0.02334116     0.08200
H877        H  0.06276698  0.59839890  0.98731338     0.26700
H878        H  0.97083898  0.56360090  0.86605620     0.21500
H879        H  0.93878235  0.58843708  0.03869047     0.26800
H880        H  0.99739537  0.62540521  0.93070433     0.15600
C881        C  0.67717821  0.30458652  0.44030558    -0.11700
C882        C  0.69196936  0.31539571  0.46770519     0.14900
C883        C  0.69803286  0.33403232  0.47215216     0.01800
C884        C  0.68886720  0.34145152  0.45022464    -0.16000
C885        C  0.67392618  0.33105274  0.42112055    -0.10800
C886        C  0.66802131  0.31190599  0.41745086     0.08500
C887        C  0.70011024  0.30667063  0.49403944     0.09500
S888        S  0.71705109  0.34832721  0.50784625    -0.25200
H889        H  0.69301205  0.35522987  0.45924849     0.19800
S890        S  0.64829362  0.29594737  0.38563142    -0.30900
H891        H  0.67243917  0.29011186  0.43805552     0.10100
C892        C  0.69434128  0.30073679  0.53758712     0.03300
C893        C  0.70264983  0.29294505  0.56194828    -0.13200
C894        C  0.71661160  0.29080283  0.54369522    -0.08800
C895        C  0.72231740  0.29683614  0.49979583     0.06700
C896        C  0.71406678  0.30471076  0.47566227    -0.13900
S897        S  0.67637208  0.30313962  0.56208547    -0.30900
H898        H  0.69813450  0.28838082  0.59536804     0.11000
S899        S  0.74064305  0.29579040  0.47336007    -0.28000
H900        H  0.71863532  0.30946082  0.44231346     0.08200
H901        H  0.65097759  0.28098169  0.38715975     0.26700
H902        H  0.67673221  0.29619047  0.60389901     0.21500
H903        H  0.73087056  0.27647948  0.47344409     0.26800
H904        H  0.71936612  0.36526252  0.49455109     0.15600
C905        C  0.83050610  0.52212358  0.58785584    -0.11700
C906        C  0.83584944  0.53082187  0.54662844     0.14900
C907        C  0.82355636  0.53410465  0.52305982     0.01800
C908        C  0.80584849  0.52742273  0.53944515    -0.16000
C909        C  0.80001270  0.51763932  0.57938602    -0.10800
C910        C  0.81291687  0.51583004  0.60484312     0.08500
C911        C  0.85275032  0.53331833  0.52565709     0.09500
S912        S  0.82937569  0.54593789  0.47076013    -0.25200
H913        H  0.79633243  0.52929398  0.51983539     0.19800
S914        S  0.80789159  0.50559282  0.65895719    -0.30900
H915        H  0.83991212  0.51967627  0.60629600     0.10100
C916        C  0.87049272  0.54637571  0.53983665     0.03300
C917        C  0.88583016  0.54769579  0.51846906    -0.13200
C918        C  0.88386300  0.53605363  0.48312096    -0.08800
C919        C  0.86571450  0.52273871  0.46984315     0.06700
C920        C  0.85063280  0.52172340  0.49095140    -0.13900
S921        S  0.87356085  0.56155003  0.58466611    -0.30900
H922        H  0.89921061  0.55771511  0.53023594     0.11000
S923        S  0.86105676  0.50672907  0.42567399    -0.28000
H924        H  0.83690319  0.51170817  0.48041543     0.08200
H925        H  0.79774335  0.51357094  0.67222608     0.26700
H926        H  0.89281844  0.57152572  0.58421132     0.21500
H927        H  0.84242034  0.49454442  0.43519886     0.26800
H928        H  0.84834331  0.55650390  0.47816457     0.15600
C929        C  0.66346757  0.53216389  0.54725270    -0.11700
C930        C  0.67717887  0.53167147  0.52296962     0.14900
C931        C  0.67921195  0.53640113  0.47797029     0.01800
C932        C  0.66760683  0.54144140  0.45829871    -0.16000
C933        C  0.65292670  0.54088349  0.48150134    -0.10800
C934        C  0.65138261  0.53667442  0.52737141     0.08500
C935        C  0.68853992  0.52526884  0.54472085     0.09500
S936        S  0.69576102  0.53533998  0.44290944    -0.25200
H937        H  0.66999192  0.54496665  0.42399362     0.19800
S938        S  0.63360420  0.53616486  0.56113209    -0.30900
H939        H  0.66199795  0.52854409  0.58183292     0.10100
C940        C  0.70746680  0.53702887  0.55167091     0.03300
C941        C  0.71789596  0.52975763  0.56767702    -0.13200
C942        C  0.70979287  0.51096205  0.57796839    -0.08800
C943        C  0.69050592  0.49953756  0.57393936     0.06700
C944        C  0.68024856  0.50673935  0.55682255    -0.13900
S945        S  0.71832979  0.56129977  0.54013738    -0.30900
H946        H  0.73252364  0.53876323  0.57147362     0.11000
S947        S  0.67799030  0.47566407  0.58956499    -0.28000
H948        H  0.66563157  0.49772688  0.55233229     0.08200
H949        H  0.63915855  0.53267011  0.60169549     0.26700
H950        H  0.73600799  0.56617075  0.55386908     0.21500
H951        H  0.68604400  0.47896398  0.63148759     0.26800
H952        H  0.69495132  0.52020424  0.46400707     0.15600
C953        C  0.71222585  0.41273280  0.51513450    -0.11700
C954        C  0.70592497  0.41391151  0.47334811     0.14900
C955        C  0.70903847  0.43107189  0.45849231     0.01800
C956        C  0.71803392  0.44642542  0.48604714    -0.16000
C957        C  0.72383136  0.44514735  0.52852265    -0.10800
C958        C  0.72124460  0.42807648  0.54256051     0.08500
C959        C  0.69436563  0.39652188  0.44910293     0.09500
S960        S  0.70107671  0.43434909  0.40615500    -0.25200
H961        H  0.71989196  0.45938054  0.47475312     0.19800
S962        S  0.72929977  0.42492498  0.59469603    -0.30900
H963        H  0.70985511  0.39961116  0.52674969     0.10100
C964        C  0.70135318  0.39009958  0.41658665     0.03300
C965        C  0.69001754  0.37253555  0.39865141    -0.13200
C966        C  0.67184821  0.36042587  0.41413173    -0.08800
C967        C  0.66437429  0.36852183  0.44272930     0.06700
C968        C  0.67594724  0.38591903  0.46059834    -0.13900
S969        S  0.72499220  0.40391002  0.39963898    -0.30900
H970        H  0.69597561  0.36745282  0.37546053     0.11000
S971        S  0.64069906  0.35958518  0.45795058    -0.28000
H972        H  0.67045664  0.39146479  0.48398147     0.08200
H973        H  0.74587933  0.44192213  0.59323880     0.26700
H974        H  0.72428163  0.39215536  0.36628284     0.21500
H975        H  0.63252443  0.35132705  0.41826608     0.26800
H976        H  0.69592646  0.41743229  0.38690286     0.15600
C977        C  0.67755025  0.30086560  0.01010496    -0.11700
C978        C  0.69646257  0.30955652  0.01579933     0.14900
C979        C  0.70515725  0.32519353  0.04265415     0.01800
C980        C  0.69522390  0.33301004  0.05822526    -0.16000
C981        C  0.67666408  0.32609807  0.04680972    -0.10800
C982        C  0.66728777  0.30802949  0.02741999     0.08500
C983        C  0.70674351  0.30282408  0.99025876     0.09500
S984        S  0.72915075  0.33650398  0.05599660    -0.25200
H985        H  0.70253122  0.34533792  0.07721513     0.19800
S986        S  0.64281762  0.29178221  0.02418407    -0.30900
H987        H  0.67062579  0.28820118  0.99159888     0.10100
C988        C  0.70349750  0.28488850  0.99561658     0.03300
C989        C  0.71224660  0.27866802  0.96748015    -0.13200
C990        C  0.72416859  0.28995677  0.93391697    -0.08800
C991        C  0.72807521  0.30821092  0.93014590     0.06700
C992        C  0.71914354  0.31430450  0.95773566    -0.13900
S993        S  0.68831063  0.26993288  0.03839674    -0.30900
H994        H  0.70940369  0.26476375  0.97084920     0.11000
S995        S  0.74470709  0.32458851  0.89182252    -0.28000
H996        H  0.72181517  0.32814010  0.95365489     0.08200
H997        H  0.63659981  0.29751476  0.05940959     0.26700
H998        H  0.69006407  0.25474647  0.02890218     0.21500
H999        H  0.75709914  0.31846172  0.89677697     0.26800
H1000       H  0.73056336  0.32081113  0.05244983     0.15600
C1001       C  0.65923580  0.34883264  0.27335352    -0.11700
C1002       C  0.66713452  0.33988446  0.25290261     0.14900
C1003       C  0.67463046  0.33192888  0.27973996     0.01800
C1004       C  0.67315730  0.33219481  0.32570898    -0.16000
C1005       C  0.66376271  0.33972824  0.34772386    -0.10800
C1006       C  0.65784044  0.34933558  0.31962069     0.08500
C1007       C  0.66792188  0.33970580  0.20362604     0.09500
S1008       S  0.68667653  0.32142364  0.25752631    -0.25200
H1009       H  0.68010572  0.32666934  0.34359565     0.19800
S1010       S  0.64838848  0.36254876  0.34052246    -0.30900
H1011       H  0.65405363  0.35547282  0.25252533     0.10100
C1012       C  0.65769422  0.32356157  0.17926821     0.03300
C1013       C  0.65920364  0.32413415  0.13308515    -0.13200
C1014       C  0.66995086  0.34065083  0.10875519    -0.08800
C1015       C  0.68152589  0.35675810  0.13481034     0.06700
C1016       C  0.67964422  0.35600357  0.18098272    -0.13900
S1017       S  0.64198094  0.30222268  0.20685702    -0.30900
H1018       H  0.65137757  0.31150046  0.11577579     0.11000
S1019       S  0.70028322  0.37873365  0.11580820    -0.28000
H1020       H  0.68809080  0.36829172  0.20002295     0.08200
H1021       H  0.64726380  0.37031065  0.30060116     0.26700
H1022       H  0.63490613  0.29143845  0.16888375     0.21500
H1023       H  0.70738644  0.37250185  0.08350122     0.26800
H1024       H  0.69331404  0.33236861  0.21939996     0.15600
C1025       C  0.85006894  0.52023845  0.94813530    -0.11700
C1026       C  0.85073370  0.53308761  0.91841776     0.14900
C1027       C  0.86759917  0.54930850  0.91005772     0.01800
C1028       C  0.88347001  0.55221134  0.93149499    -0.16000
C1029       C  0.88310225  0.53909959  0.96098991    -0.10800
C1030       C  0.86576874  0.52293724  0.96955272     0.08500
C1031       C  0.83320658  0.52879069  0.89795217     0.09500
S1032       S  0.86977193  0.56693898  0.87295561    -0.25200
H1033       H  0.89597051  0.56498478  0.92486770     0.19800
S1034       S  0.86293886  0.50520048  0.00742475    -0.30900
H1035       H  0.83696518  0.50791285  0.95449530     0.10100
C1036       C  0.82583437  0.51635900  0.86279365     0.03300
C1037       C  0.80765809  0.50957453  0.84991538    -0.13200
C1038       C  0.79650182  0.51477408  0.87179659    -0.08800
C1039       C  0.80418007  0.52764305  0.90653198     0.06700
C1040       C  0.82244218  0.53462508  0.91877372    -0.13900
S1041       S  0.83951228  0.50876545  0.83519386    -0.30900
H1042       H  0.80201470  0.49991391  0.82306981     0.11000
S1043       S  0.79117191  0.53464126  0.93902991    -0.28000
H1044       H  0.82798589  0.54385691  0.94650106     0.08200
H1045       H  0.84388077  0.49346432  0.00378326     0.26700
H1046       H  0.82602058  0.49689712  0.80535847     0.21500
H1047       H  0.77651929  0.51659354  0.94619380     0.26800
H1048       H  0.85469364  0.55552318  0.84633477     0.15600
C1049       C  0.70360890  0.53598252  0.88223080    -0.11700
C1050       C  0.68586066  0.52334668  0.89707897     0.14900
C1051       C  0.67916724  0.50436800  0.89367551     0.01800
C1052       C  0.69049307  0.49848930  0.87645582    -0.16000
C1053       C  0.70857275  0.51109756  0.86332407    -0.10800
C1054       C  0.71495594  0.53009855  0.86506295     0.08500
C1055       C  0.67485382  0.53027927  0.91746529     0.09500
S1056       S  0.65653396  0.48691435  0.91174766    -0.25200
H1057       H  0.68537290  0.48389654  0.87520004     0.19800
S1058       S  0.73717176  0.54751361  0.84498209    -0.30900
H1059       H  0.70866315  0.55054856  0.88421909     0.10100
C1060       C  0.67798773  0.53650203  0.96108321     0.03300
C1061       C  0.66580325  0.54058543  0.98151842    -0.13200
C1062       C  0.65010284  0.53821133  0.95973829    -0.08800
C1063       C  0.64842095  0.53408479  0.91399485     0.06700
C1064       C  0.66057804  0.52980620  0.89379164    -0.13900
S1065       S  0.69695275  0.53817730  0.99167823    -0.30900
H1066       H  0.66875048  0.54534849  0.01482754     0.11000
S1067       S  0.63051013  0.53355093  0.88099838    -0.28000
H1068       H  0.65868705  0.52553499  0.85974584     0.08200
H1069       H  0.73693133  0.53731555  0.80838684     0.26700
H1070       H  0.69401349  0.54503784  0.03086462     0.21500
H1071       H  0.63652725  0.53097048  0.84002744     0.26800
H1072       H  0.65465806  0.49705791  0.94549876     0.15600
C1073       C  0.69517972  0.40976795  0.92104353    -0.11700
C1074       C  0.70151044  0.41046649  0.96394467     0.14900
C1075       C  0.71489852  0.42759274  0.98131448     0.01800
C1076       C  0.72184633  0.44347064  0.95514709    -0.16000
C1077       C  0.71594931  0.44272556  0.91158426    -0.10800
C1078       C  0.70193821  0.42562897  0.89510029     0.08500
C1079       C  0.69406247  0.39294924  0.98886571     0.09500
S1080       S  0.72395048  0.43012920  0.03615435    -0.25200
H1081       H  0.73240566  0.45644274  0.96855316     0.19800
S1082       S  0.69151537  0.42310003  0.84205222    -0.30900
H1083       H  0.68467139  0.39671574  0.90782976     0.10100
C1084       C  0.68092162  0.38785679  0.02223819     0.03300
C1085       C  0.67360936  0.37065079  0.04275523    -0.13200
C1086       C  0.67925673  0.35804895  0.03212021    -0.08800
C1087       C  0.69174450  0.36309716  0.99543831     0.06700
C1088       C  0.69921765  0.38054618  0.97588563    -0.13900
S1089       S  0.67303722  0.40307264  0.03798889    -0.30900
H1090       H  0.66351821  0.36706913  0.06831857     0.11000
S1091       S  0.69644950  0.34760451  0.96568546    -0.28000
H1092       H  0.70852560  0.38429217  0.94819203     0.08200
H1093       H  0.69051945  0.43903973  0.84597054     0.26700
H1094       H  0.66123112  0.39205936  0.07208388     0.21500
H1095       H  0.71373070  0.36098110  0.94911711     0.26800
H1096       H  0.72124197  0.41244056  0.04007669     0.15600
C1097       C  0.92215892  0.45390824  0.05907022    -0.11700
C1098       C  0.92289017  0.46238667  0.01880269     0.14900
C1099       C  0.92338554  0.45408213  0.97919787     0.01800
C1100       C  0.92261022  0.43730398  0.98063581    -0.16000
C1101       C  0.92069526  0.42816239  0.02068819    -0.10800
C1102       C  0.92084217  0.43680571  0.06043045     0.08500
C1103       C  0.92197836  0.47925597  0.01862246     0.09500
S1104       S  0.92435917  0.46383556  0.92569670    -0.25200
H1105       H  0.92282777  0.43096960  0.94995882     0.19800
S1106       S  0.91790587  0.42616591  0.11346967    -0.30900
H1107       H  0.92175134  0.46026830  0.08952467     0.10100
C1108       C  0.90518968  0.47835031  0.02515149     0.03300
C1109       C  0.90434224  0.49422536  0.01971455    -0.13200
C1110       C  0.91994256  0.51109314  0.00810892    -0.08800
C1111       C  0.93689798  0.51208126  0.00298390     0.06700
C1112       C  0.93770317  0.49610116  0.00812845    -0.13900
S1113       S  0.88463276  0.45679176  0.03830836    -0.30900
H1114       H  0.89138860  0.49346829  0.02415501     0.11000
S1115       S  0.95728730  0.53317984  0.98690903    -0.28000
H1116       H  0.95047061  0.49653216  0.00271474     0.08200
H1117       H  0.90315127  0.40925446  0.09955943     0.26700
H1118       H  0.87285445  0.46370370  0.04210095     0.21500
H1119       H  0.96954508  0.52685976  0.99088113     0.26800
H1120       H  0.91351710  0.47130437  0.93647878     0.15600
C1121       C  0.82679705  0.30733627  0.91915022    -0.11700
C1122       C  0.83683902  0.32467189  0.89916810     0.14900
C1123       C  0.82858187  0.32950940  0.86578950     0.01800
C1124       C  0.81026534  0.31731264  0.85472027    -0.16000
C1125       C  0.79990167  0.30021237  0.87595571    -0.10800
C1126       C  0.80841982  0.29520592  0.90849111     0.08500
C1127       C  0.85429674  0.33847130  0.91984657     0.09500
S1128       S  0.84040522  0.35140807  0.83779848    -0.25200
H1129       H  0.80399341  0.32133300  0.82960989     0.19800
S1130       S  0.79624948  0.27444228  0.94074095    -0.30900
H1131       H  0.83294357  0.30376528  0.94555181     0.10100
C1132       C  0.85452072  0.35116878  0.94949778     0.03300
C1133       C  0.87072542  0.36327366  0.97116550    -0.13200
C1134       C  0.88733313  0.36374619  0.96336109    -0.08800
C1135       C  0.88657026  0.34986832  0.93587134     0.06700
C1136       C  0.87023621  0.33778336  0.91365373    -0.13900
S1137       S  0.83386758  0.35142326  0.96160523    -0.30900
H1138       H  0.87030974  0.37235514  0.99529679     0.11000
S1139       S  0.90454039  0.34480148  0.93208124    -0.28000
H1140       H  0.86970229  0.32722595  0.89278435     0.08200
H1141       H  0.78112195  0.27643245  0.94901328     0.26700
H1142       H  0.84188757  0.36690375  0.98901822     0.21500
H1143       H  0.90825082  0.34692104  0.97745536     0.26800
H1144       H  0.85818252  0.35474586  0.84425969     0.15600
C1145       C  0.17512499  0.49789516  0.12032949    -0.11700
C1146       C  0.16925282  0.48865543  0.08011468     0.14900
C1147       C  0.18024890  0.48305958  0.05862806     0.01800
C1148       C  0.19734166  0.48793136  0.07601126    -0.16000
C1149       C  0.20381752  0.49822480  0.11480271    -0.10800
C1150       C  0.19210228  0.50246009  0.13824156     0.08500
C1151       C  0.15333487  0.48769816  0.05773345     0.09500
S1152       S  0.17366901  0.47059086  0.00752409    -0.25200
H1153       H  0.20599219  0.48434198  0.05787236     0.19800
S1154       S  0.19799046  0.51373320  0.19083547    -0.30900
H1155       H  0.16668814  0.50211071  0.13714816     0.10100
C1156       C  0.13511014  0.47572008  0.07117247     0.03300
C1157       C  0.12069055  0.47514067  0.04717800    -0.13200
C1158       C  0.12409487  0.48636479  0.00967350    -0.08800
C1159       C  0.14273147  0.49859362  0.99705953     0.06700
C1160       C  0.15688570  0.49906959  0.02125596    -0.13900
S1161       S  0.13025655  0.46066308  0.11783608    -0.30900
H1162       H  0.10687772  0.46561753  0.05770826     0.11000
S1163       S  0.14913724  0.51353378  0.94927741    -0.28000
H1164       H  0.17098562  0.50819488  0.01128703     0.08200
H1165       H  0.20684142  0.50467979  0.20621238     0.26700
H1166       H  0.11107776  0.45209047  0.11643634     0.21500
H1167       H  0.16801361  0.52430412  0.95776557     0.26800
H1168       H  0.15467270  0.46189072  0.01452615     0.15600
C1169       C  0.10784605  0.55170635  0.91461634    -0.11700
C1170       C  0.09381942  0.55241541  0.93697612     0.14900
C1171       C  0.08119975  0.53725485  0.96280337     0.01800
C1172       C  0.08345283  0.52221258  0.96737633    -0.16000
C1173       C  0.09709133  0.52123570  0.94405372    -0.10800
C1174       C  0.10959307  0.53626259  0.91761582     0.08500
C1175       C  0.09322859  0.56944787  0.93414952     0.09500
S1176       S  0.06186931  0.53612676  0.99034613    -0.25200
H1177       H  0.07431963  0.51101730  0.98904053     0.19800
S1178       S  0.12842461  0.53714977  0.88803216    -0.30900
H1179       H  0.11763378  0.56338801  0.89503504     0.10100
C1180       C  0.09701279  0.58082638  0.97095301     0.03300
C1181       C  0.09608669  0.59669781  0.96686246    -0.13200
C1182       C  0.09210106  0.60190094  0.92635937    -0.08800
C1183       C  0.08888934  0.59073646  0.88910400     0.06700
C1184       C  0.08931633  0.57453944  0.89360843    -0.13900
S1185       S  0.10381717  0.57561148  0.02267659    -0.30900
H1186       H  0.09858232  0.60520342  0.99545686     0.11000
S1187       S  0.08561259  0.59746610  0.83512489    -0.28000
H1188       H  0.08683801  0.56585199  0.86537628     0.08200
H1189       H  0.12292057  0.51858065  0.89104861     0.26700
H1190       H  0.10584835  0.59076178  0.04613438     0.21500
H1191       H  0.08289215  0.58189741  0.81238297     0.26800
H1192       H  0.05975978  0.54766202  0.96084059     0.15600
C1193       C  0.98570838  0.40697642  0.98298979    -0.11700
C1194       C  0.99609867  0.42557082  0.99488334     0.14900
C1195       C  0.98681010  0.43421813  0.01056512     0.01800
C1196       C  0.96772873  0.42465858  0.01126403    -0.16000
C1197       C  0.95720936  0.40595535  0.00052783    -0.10800
C1198       C  0.96650720  0.39693558  0.98718668     0.08500
C1199       C  0.01625085  0.43639599  0.98630684     0.09500
S1200       S  0.99844277  0.45744490  0.03096356    -0.25200
H1201       H  0.96110447  0.43207011  0.02086986     0.19800
S1202       S  0.95499223  0.37265101  0.97693983    -0.30900
H1203       H  0.99260524  0.40017801  0.97068264     0.10100
C1204       C  0.02873582  0.43221149  0.00522818     0.03300
C1205       C  0.04765191  0.44391890  0.99739545    -0.13200
C1206       C  0.05475152  0.46056798  0.97344997    -0.08800
C1207       C  0.04179035  0.46470348  0.95541132     0.06700
C1208       C  0.02301750  0.45208382  0.96003473    -0.13900
S1209       S  0.02077535  0.41244801  0.04085073    -0.30900
H1210       H  0.05687647  0.43995689  0.01046854     0.11000
S1211       S  0.04774621  0.48629552  0.92973924    -0.28000
H1212       H  0.01325767  0.45492527  0.94488696     0.08200
H1213       H  0.94216186  0.36778858  0.01122813     0.26700
H1214       H  0.03809511  0.41539833  0.05192733     0.21500
H1215       H  0.03016151  0.48381934  0.92666270     0.26800
H1216       H  0.01376090  0.45723605  0.04722298     0.15600
C1217       C  0.17563099  0.48731230  0.39029680    -0.11700
C1218       C  0.17051712  0.47854390  0.43139109     0.14900
C1219       C  0.18318000  0.47609664  0.45572541     0.01800
C1220       C  0.20093161  0.48321178  0.43930815    -0.16000
C1221       C  0.20637630  0.49275626  0.39903722    -0.10800
C1222       C  0.19332173  0.49425549  0.37362728     0.08500
C1223       C  0.15280658  0.47428381  0.45034215     0.09500
S1224       S  0.17795855  0.46522705  0.50923466    -0.25200
H1225       H  0.21077642  0.48191217  0.45903964     0.19800
S1226       S  0.19827197  0.50474852  0.31977788    -0.30900
H1227       H  0.16588399  0.48915008  0.37157609     0.10100
C1228       C  0.15190488  0.48676139  0.47862101     0.03300
C1229       C  0.13504640  0.48239381  0.49647466    -0.13200
C1230       C  0.11861403  0.46595361  0.48603861    -0.08800
C1231       C  0.12004046  0.45275741  0.46049753     0.06700
C1232       C  0.13693484  0.45743585  0.44147410    -0.13900
S1233       S  0.17227772  0.50836188  0.49198670    -0.30900
H1234       H  0.13471429  0.49198759  0.51910521     0.11000
S1235       S  0.10222769  0.42904188  0.45606244    -0.28000
H1236       H  0.13795959  0.44747648  0.42150374     0.08200
H1237       H  0.20942154  0.49787620  0.30666003     0.26700
H1238       H  0.16393776  0.51474636  0.52099133     0.21500
H1239       H  0.09671943  0.42755139  0.50031727     0.26800
H1240       H  0.15905322  0.45366400  0.50271065     0.15600
C1241       C  0.07504926  0.45442703  0.70247213    -0.11700
C1242       C  0.09235781  0.46615543  0.72055585     0.14900
C1243       C  0.10779686  0.47504527  0.69278101     0.01800
C1244       C  0.10551741  0.47256691  0.64744773    -0.16000
C1245       C  0.08820439  0.46081280  0.62881269    -0.10800
C1246       C  0.07278166  0.45156392  0.65688478     0.08500
C1247       C  0.09370460  0.46975494  0.76818851     0.09500
S1248       S  0.13070841  0.48999733  0.71298245    -0.25200
H1249       H  0.11746990  0.48006142  0.62649567     0.19800
S1250       S  0.05031876  0.43567539  0.63565213    -0.30900
H1251       H  0.06330142  0.44768314  0.72427972     0.10100
C1252       C  0.09511537  0.48587555  0.78454132     0.03300
C1253       C  0.09616922  0.48874528  0.82997287    -0.13200
C1254       C  0.09581850  0.47582099  0.85945708    -0.08800
C1255       C  0.09402807  0.45947015  0.84290454     0.06700
C1256       C  0.09316809  0.45670595  0.79741244    -0.13900
S1257       S  0.09525243  0.50263709  0.74756959    -0.30900
H1258       H  0.09727978  0.50114369  0.84260185     0.11000
S1259       S  0.09173227  0.44121684  0.87785454    -0.28000
H1260       H  0.09179807  0.44418478  0.78465369     0.08200
H1261       H  0.04097632  0.43062885  0.67622574     0.26700
H1262       H  0.09598883  0.51471183  0.78009166     0.21500
H1263       H  0.08163241  0.44360673  0.91101982     0.26800
H1264       H  0.12805473  0.48141280  0.75419972     0.15600
C1265       C  0.09844413  0.52987024  0.54714328    -0.11700
C1266       C  0.08231291  0.52870474  0.53258328     0.14900
C1267       C  0.06708405  0.51148080  0.52140522     0.01800
C1268       C  0.06868421  0.49593779  0.52247250    -0.16000
C1269       C  0.08522620  0.49730164  0.53415223    -0.10800
C1270       C  0.10001516  0.51429342  0.54847527     0.08500
C1271       C  0.08254008  0.54593177  0.52499402     0.09500
S1272       S  0.04557933  0.50861675  0.50381087    -0.25200
H1273       H  0.05711907  0.48280703  0.51288753     0.19800
S1274       S  0.12077070  0.51617247  0.56920272    -0.30900
H1275       H  0.10997456  0.54312887  0.55616265     0.10100
C1276       C  0.08019450  0.55546604  0.55955028     0.03300
C1277       C  0.08119803  0.57213424  0.55056973    -0.13200
C1278       C  0.08530117  0.57983696  0.50808700    -0.08800
C1279       C  0.08688093  0.56972936  0.47316481     0.06700
C1280       C  0.08564762  0.55302876  0.48216568    -0.13900
S1281       S  0.07606006  0.54643880  0.61499388    -0.30900
H1282       H  0.07910839  0.57927433  0.57691578     0.11000
S1283       S  0.08960574  0.57673964  0.41611815    -0.28000
H1284       H  0.08712264  0.54545240  0.45551797     0.08200
H1285       H  0.12919923  0.53453658  0.58289159     0.26700
H1286       H  0.07477663  0.56066447  0.63467717     0.21500
H1287       H  0.07967180  0.58569813  0.41910503     0.26800
H1288       H  0.04719471  0.52369189  0.52671620     0.15600
C1289       C  0.81994214  0.33029186  0.56464538    -0.11700
C1290       C  0.83072658  0.32233219  0.56037690     0.14900
C1291       C  0.82322851  0.30373888  0.57238576     0.01800
C1292       C  0.80479982  0.29322265  0.58509157    -0.16000
C1293       C  0.79372474  0.30096126  0.58766432    -0.10800
C1294       C  0.80157283  0.31985314  0.57786154     0.08500
C1295       C  0.84887444  0.33322950  0.53856344     0.09500
S1296       S  0.83638127  0.29260514  0.57154007    -0.25200
H1297       H  0.79908983  0.27886849  0.59335572     0.19800
S1298       S  0.78864224  0.33119131  0.57825983    -0.30900
H1299       H  0.82562426  0.34454953  0.55539569     0.10100
C1300       C  0.85164736  0.32930727  0.49535234     0.03300
C1301       C  0.86843526  0.34077234  0.47425474    -0.13200
C1302       C  0.88254851  0.35681328  0.49433973    -0.08800
C1303       C  0.88000011  0.35994475  0.53911130     0.06700
C1304       C  0.86315582  0.34828980  0.56026413    -0.13900
S1305       S  0.83338864  0.31020479  0.46583878    -0.30900
H1306       H  0.87011085  0.33690172  0.44185120     0.11000
S1307       S  0.89790894  0.37886241  0.56991939    -0.28000
H1308       H  0.86092477  0.35101076  0.59373777     0.08200
H1309       H  0.77336601  0.31687312  0.55673225     0.26700
H1310       H  0.84284129  0.31291073  0.42591083     0.21500
H1311       H  0.88843295  0.37511594  0.61016927     0.26800
H1312       H  0.85357719  0.30859794  0.57738046     0.15600
C1313       C  0.89935672  0.37492501  0.18594331    -0.11700
C1314       C  0.91630166  0.38194660  0.20696293     0.14900
C1315       C  0.93230037  0.38845807  0.18115319     0.01800
C1316       C  0.93099895  0.38801035  0.13530149    -0.16000
C1317       C  0.91420406  0.38195271  0.11429193    -0.10800
C1318       C  0.89814748  0.37538351  0.14007316     0.08500
C1319       C  0.91667769  0.38226227  0.25574978     0.09500
S1320       S  0.95486743  0.39830589  0.20442712    -0.25200
H1321       H  0.94336696  0.39308962  0.11580376     0.19800
S1322       S  0.87633633  0.36913413  0.11578897    -0.30900
H1323       H  0.88709022  0.36964808  0.20584552     0.10100
C1324       C  0.90957203  0.39138714  0.27984792     0.03300
C1325       C  0.90888127  0.39013820  0.32579971    -0.13200
C1326       C  0.91633746  0.38116099  0.34837320    -0.08800
C1327       C  0.92377717  0.37236174  0.32445833     0.06700
C1328       C  0.92366797  0.37280510  0.27844695    -0.13900
S1329       S  0.90217370  0.40536468  0.25252397    -0.30900
H1330       H  0.90280513  0.39648058  0.34447942     0.11000
S1331       S  0.93362163  0.36044441  0.35057011    -0.28000
H1332       H  0.92897667  0.36563194  0.26015655     0.08200
H1333       H  0.86679182  0.36703199  0.15526889     0.26700
H1334       H  0.89802783  0.41181513  0.29073058     0.21500
H1335       H  0.92143236  0.35377766  0.38642688     0.26800
H1336       H  0.95153051  0.40646356  0.24054422     0.15600
C1337       C  0.97855938  0.38935025  0.48232315    -0.11700
C1338       C  0.98971537  0.40803549  0.49282345     0.14900
C1339       C  0.98153825  0.41874361  0.49811433     0.01800
C1340       C  0.96294640  0.41106139  0.48930303    -0.16000
C1341       C  0.95192607  0.39259640  0.47756144    -0.10800
C1342       C  0.95962915  0.38140566  0.47573273     0.08500
C1343       C  0.00993558  0.41654420  0.49463572     0.09500
S1344       S  0.99406951  0.44234394  0.51577467    -0.25200
H1345       H  0.95697767  0.41960645  0.49160250     0.19800
S1346       S  0.94566888  0.35731712  0.46306002    -0.30900
H1347       H  0.98479385  0.38113976  0.47816992     0.10100
C1348       C  0.01851517  0.41098313  0.52545007     0.03300
C1349       C  0.03769513  0.42095948  0.52861472    -0.13200
C1350       C  0.04840978  0.43653163  0.50237535    -0.08800
C1351       C  0.03989176  0.44141835  0.46982673     0.06700
C1352       C  0.02082851  0.43129799  0.46611272    -0.13900
S1353       S  0.00516132  0.39214875  0.56301563    -0.30900
H1354       H  0.04439385  0.41707602  0.55278436     0.11000
S1355       S  0.05229132  0.46111621  0.43415737    -0.28000
H1356       H  0.01433350  0.43540069  0.44178651     0.08200
H1357       H  0.95954882  0.35315128  0.46738826     0.26700
H1358       H  0.02000343  0.39280115  0.58488278     0.21500
H1359       H  0.06774667  0.45957012  0.42856106     0.26800
H1360       H  0.00672007  0.44063554  0.54185515     0.15600
C1361       C  0.93242941  0.45317012  0.41868469    -0.11700
C1362       C  0.92744277  0.45840379  0.45732130     0.14900
C1363       C  0.92232108  0.44694829  0.49463890     0.01800
C1364       C  0.92053931  0.42973966  0.49131504    -0.16000
C1365       C  0.92378726  0.42351706  0.45138315    -0.10800
C1366       C  0.93095339  0.43599628  0.41528704     0.08500
C1367       C  0.92444489  0.47400408  0.45524899     0.09500
S1368       S  0.91682533  0.45311620  0.54663154    -0.25200
H1369       H  0.91602364  0.42088158  0.52008551     0.19800
S1370       S  0.93710787  0.43031050  0.36353500    -0.30900
H1371       H  0.93645249  0.46218889  0.39029186     0.10100
C1372       C  0.93889011  0.49237402  0.45746575     0.03300
C1373       C  0.93501380  0.50649318  0.45417308    -0.13200
C1374       C  0.91700112  0.50258099  0.44787346    -0.08800
C1375       C  0.90264981  0.48403484  0.44467626     0.06700
C1376       C  0.90651171  0.47005139  0.44916682    -0.13900
S1377       S  0.96210890  0.49774611  0.46538386    -0.30900
H1378       H  0.94603586  0.52063873  0.45694376     0.11000
S1379       S  0.87934160  0.47709729  0.43201392    -0.28000
H1380       H  0.89547420  0.45587707  0.44653192     0.08200
H1381       H  0.94489060  0.44771001  0.34352389     0.26700
H1382       H  0.97035945  0.51695473  0.46413865     0.21500
H1383       H  0.88402723  0.49171856  0.40281254     0.26800
H1384       H  0.92792422  0.47220450  0.54061348     0.15600
C1385       C  0.65800072  0.14278234  0.56349448    -0.11700
C1386       C  0.67320513  0.15679447  0.54102562     0.14900
C1387       C  0.67732604  0.15328127  0.49869329     0.01800
C1388       C  0.66536527  0.13661456  0.47815323    -0.16000
C1389       C  0.64885401  0.12307064  0.49832187    -0.10800
C1390       C  0.64600753  0.12588798  0.54312158     0.08500
C1391       C  0.68361897  0.17544190  0.56046814     0.09500
S1392       S  0.69703690  0.17009516  0.46773556    -0.25200
H1393       H  0.66925592  0.13481679  0.44576619     0.19800
S1394       S  0.62669042  0.10850672  0.57442301    -0.30900
H1395       H  0.65513922  0.14541347  0.59647611     0.10100
C1396       C  0.67892858  0.18873058  0.55084367     0.03300
C1397       C  0.68983325  0.20665502  0.56694843    -0.13200
C1398       C  0.70557820  0.21172065  0.59185705    -0.08800
C1399       C  0.70987256  0.19819011  0.60275166     0.06700
C1400       C  0.69885107  0.18023129  0.58705763    -0.13900
S1401       S  0.65932361  0.18296763  0.51691244    -0.30900
H1402       H  0.68648668  0.21697215  0.55871747     0.11000
S1403       S  0.72900841  0.20288695  0.63706170    -0.28000
H1404       H  0.70236757  0.16999165  0.59487709     0.08200
H1405       H  0.63193214  0.11727626  0.61546427     0.26700
H1406       H  0.66121577  0.20039567  0.51740840     0.21500
H1407       H  0.72785825  0.21564305  0.66407370     0.26800
H1408       H  0.70871765  0.17774221  0.50398125     0.15600
C1409       C  0.56349722  0.98483697  0.46266088    -0.11700
C1410       C  0.58023247  0.99518012  0.48459572     0.14900
C1411       C  0.58667975  0.98600637  0.51107902     0.01800
C1412       C  0.57601584  0.96685465  0.51600766    -0.16000
C1413       C  0.55922456  0.95659317  0.49425619    -0.10800
C1414       C  0.55308566  0.96571928  0.46675972     0.08500
C1415       C  0.59010063  0.01549440  0.48026571     0.09500
S1416       S  0.60821721  0.99793245  0.53971557    -0.25200
H1417       H  0.58072193  0.95992057  0.53739919     0.19800
S1418       S  0.53193079  0.95383815  0.43667443    -0.30900
H1419       H  0.55845705  0.99176458  0.44229901     0.10100
C1420       C  0.59805774  0.02431026  0.43995827     0.03300
C1421       C  0.60582494  0.04335524  0.43604002    -0.13200
C1422       C  0.60593623  0.05389305  0.47157393    -0.08800
C1423       C  0.59782127  0.04501314  0.51185454     0.06700
C1424       C  0.59025816  0.02599499  0.51596440    -0.13900
S1425       S  0.59842228  0.01131103  0.39353415    -0.30900
H1426       H  0.61170391  0.05008478  0.40496979     0.11000
S1427       S  0.59548861  0.05688575  0.55800867    -0.28000
H1428       H  0.58376816  0.01919598  0.54667091     0.08200
H1429       H  0.53244678  0.93782561  0.42950350     0.26700
H1430       H  0.60736711  0.02616065  0.36394550     0.21500
H1431       H  0.59290846  0.06925818  0.53279653     0.26800
H1432       H  0.61706378  0.01268915  0.50990515     0.15600
C1433       C  0.55091501  0.91815924  0.77888542    -0.11700
C1434       C  0.54001221  0.92392044  0.75846180     0.14900
C1435       C  0.52972159  0.92907944  0.78453719     0.01800
C1436       C  0.53058875  0.92830067  0.83036592    -0.16000
C1437       C  0.54131027  0.92229657  0.85115862    -0.10800
C1438       C  0.55182808  0.91739785  0.82473612     0.08500
C1439       C  0.53864817  0.92292204  0.71007553     0.09500
S1440       S  0.51494910  0.93647720  0.76208098    -0.25200
H1441       H  0.52225665  0.93186302  0.84994295     0.19800
S1442       S  0.56687514  0.91026235  0.84635713    -0.30900
H1443       H  0.55876295  0.91414344  0.75875989     0.10100
C1444       C  0.54918280  0.93833867  0.68280224     0.03300
C1445       C  0.54746599  0.93633568  0.63688862    -0.13200
C1446       C  0.53550941  0.91918548  0.61803694    -0.08800
C1447       C  0.52458704  0.90390734  0.64578465     0.06700
C1448       C  0.52650394  0.90591354  0.69130469    -0.13900
S1449       S  0.56497022  0.96037873  0.70651027    -0.30900
H1450       H  0.55572470  0.94801199  0.61557381     0.11000
S1451       S  0.50745750  0.88162706  0.62558205    -0.28000
H1452       H  0.51823891  0.89415125  0.71244818     0.08200
H1453       H  0.57103668  0.92008145  0.88568324     0.26700
H1454       H  0.57214182  0.96981371  0.66648643     0.21500
H1455       H  0.50252157  0.88819690  0.58886314     0.26800
H1456       H  0.51370335  0.93031563  0.71878478     0.15600
C1457       C  0.70663451  0.18318532  0.91052272    -0.11700
C1458       C  0.68773046  0.17514871  0.90433575     0.14900
C1459       C  0.68124540  0.18513992  0.88145259     0.01800
C1460       C  0.69350020  0.20322064  0.86821866    -0.16000
C1461       C  0.71237588  0.21177274  0.87640981    -0.10800
C1462       C  0.71899710  0.20127594  0.89677284     0.08500
C1463       C  0.67484227  0.15787734  0.92816771     0.09500
S1464       S  0.65732032  0.17574808  0.86941718    -0.25200
H1465       H  0.68808414  0.21076203  0.85196733     0.19800
S1466       S  0.74285993  0.21016490  0.90759889    -0.30900
H1467       H  0.71172242  0.17564153  0.92817584     0.10100
C1468       C  0.67260803  0.14071640  0.91786515     0.03300
C1469       C  0.65900094  0.12478442  0.93974833    -0.13200
C1470       C  0.64741288  0.12560749  0.97178520    -0.08800
C1471       C  0.65036025  0.14324091  0.98274605     0.06700
C1472       C  0.66405883  0.15892238  0.96126352    -0.13900
S1473       S  0.68647195  0.13900349  0.87538779    -0.30900
H1474       H  0.65728424  0.11178120  0.93064102     0.11000
S1475       S  0.63636849  0.14631544  0.02284674    -0.28000
H1476       H  0.66610154  0.17223971  0.96926158     0.08200
H1477       H  0.74432653  0.22398323  0.93561611     0.26700
H1478       H  0.67942095  0.12004147  0.87973073     0.21500
H1479       H  0.64579636  0.16560178  0.02217553     0.26800
H1480       H  0.65273500  0.15734271  0.86746125     0.15600
C1481       C  0.60326391  0.08465666  0.18789991    -0.11700
C1482       C  0.62026634  0.09322140  0.20886970     0.14900
C1483       C  0.63630420  0.10154954  0.18300678     0.01800
C1484       C  0.63494907  0.10073528  0.13717665    -0.16000
C1485       C  0.61794981  0.09326081  0.11541891    -0.10800
C1486       C  0.60178607  0.08516240  0.14199218     0.08500
C1487       C  0.62074192  0.09302926  0.25770991     0.09500
S1488       S  0.65896241  0.11409977  0.20629863    -0.25200
H1489       H  0.64757032  0.10646616  0.11857950     0.19800
S1490       S  0.57904709  0.07617679  0.12029986    -0.30900
H1491       H  0.59101158  0.07792271  0.20807469     0.10100
C1492       C  0.61248309  0.10067429  0.28314922     0.03300
C1493       C  0.61297115  0.09987668  0.32907163    -0.13200
C1494       C  0.62221441  0.09239672  0.35031206    -0.08800
C1495       C  0.63067075  0.08489974  0.32501112     0.06700
C1496       C  0.62948722  0.08497225  0.27905152    -0.13900
S1497       S  0.60208407  0.11228383  0.25752361    -0.30900
H1498       H  0.60639877  0.10543201  0.34864603     0.11000
S1499       S  0.64299291  0.07485668  0.34837754    -0.28000
H1500       H  0.63566054  0.07890568  0.25963361     0.08200
H1501       H  0.56980017  0.07400736  0.16030254     0.26700
H1502       H  0.59703328  0.11743762  0.29650677     0.21500
H1503       H  0.64292207  0.07939127  0.39260999     0.26800
H1504       H  0.65406197  0.12084088  0.24269576     0.15600
C1505       C  0.59016602  0.99106599  0.95018194    -0.11700
C1506       C  0.59025574  0.99764219  0.99235623     0.14900
C1507       C  0.58068427  0.98498982  0.02671664     0.01800
C1508       C  0.57022614  0.96618245  0.01748384    -0.16000
C1509       C  0.56901076  0.95968761  0.97446364    -0.10800
C1510       C  0.57981369  0.97231062  0.94097892     0.08500
C1511       C  0.59676959  0.01740480  0.99678302     0.09500
S1512       S  0.58021777  0.99216644  0.08217936    -0.25200
H1513       H  0.56206129  0.95669714  0.04351800     0.19800
S1514       S  0.58082138  0.96542154  0.88571492    -0.30900
H1515       H  0.59748483  0.00071399  0.92368255     0.10100
C1516       C  0.61542128  0.03114564  0.99847065     0.03300
C1517       C  0.62043519  0.04972117  0.99993992    -0.13200
C1518       C  0.60712931  0.05483637  0.99905981    -0.08800
C1519       C  0.58838157  0.04077344  0.99628328     0.06700
C1520       C  0.58354984  0.02237716  0.99569099    -0.13900
S1521       S  0.63269830  0.02494746  0.99975360    -0.30900
H1522       H  0.63474169  0.06027060  0.00259663     0.11000
S1523       S  0.57020384  0.04557720  0.99049336    -0.28000
H1524       H  0.56929414  0.01162053  0.99322941     0.08200
H1525       H  0.58037716  0.94949129  0.89967168     0.26700
H1526       H  0.64791590  0.04295109  0.99831726     0.21500
H1527       H  0.55538796  0.02738040  0.98879673     0.26800
H1528       H  0.59711581  0.00879208  0.07967526     0.15600
C1529       C  0.18656054  0.67897656  0.40534717    -0.11700
C1530       C  0.17268793  0.68170738  0.38942742     0.14900
C1531       C  0.17748830  0.69694307  0.36178030     0.01800
C1532       C  0.19592818  0.70916517  0.35130392    -0.16000
C1533       C  0.20973940  0.70624449  0.36660148    -0.10800
C1534       C  0.20496402  0.69103715  0.39434219     0.08500
C1535       C  0.15354931  0.66888674  0.40411932     0.09500
S1536       S  0.16072883  0.70123594  0.33777367    -0.25200
H1537       H  0.19947467  0.72075178  0.32983408     0.19800
S1538       S  0.22172821  0.68676146  0.41849411    -0.30900
H1539       H  0.18303144  0.66751675  0.42723901     0.10100
C1540       C  0.14430963  0.65016917  0.39318396     0.03300
C1541       C  0.12707577  0.63817827  0.41179266    -0.13200
C1542       C  0.11902774  0.64421670  0.44296412    -0.08800
C1543       C  0.12717093  0.66350302  0.44808687     0.06700
C1544       C  0.14456211  0.67544564  0.43008733    -0.13900
S1545       S  0.15448577  0.64148944  0.35560375    -0.30900
H1546       H  0.12007538  0.62392317  0.40239099     0.11000
S1547       S  0.11620770  0.67409959  0.47552892    -0.28000
H1548       H  0.15121024  0.69002039  0.43655278     0.08200
H1549       H  0.23507176  0.70535519  0.42489877     0.26700
H1550       H  0.14022527  0.62300172  0.35683257     0.21500
H1551       H  0.09821578  0.66024201  0.46592466     0.26800
H1552       H  0.14670178  0.68271110  0.33494610     0.15600
C1553       C  0.32708092  0.62295996  0.52813428    -0.11700
C1554       C  0.30797400  0.61342777  0.52811520     0.14900
C1555       C  0.29895260  0.62114323  0.54967549     0.01800
C1556       C  0.30919276  0.63912705  0.56549522    -0.16000
C1557       C  0.32822125  0.65039940  0.55713346    -0.10800
C1558       C  0.33741469  0.64097995  0.54409647     0.08500
C1559       C  0.29814870  0.59637821  0.50187363     0.09500
S1560       S  0.27437071  0.60942671  0.55467590    -0.25200
H1561       H  0.30181241  0.64496579  0.58004547     0.19800
S1562       S  0.36179964  0.65032739  0.55005026    -0.30900
H1563       H  0.33388463  0.61626707  0.51464443     0.10100
C1564       C  0.29422527  0.59710674  0.45719876     0.03300
C1565       C  0.28656022  0.58110412  0.43180325    -0.13200
C1566       C  0.28266635  0.56420743  0.44994302    -0.08800
C1567       C  0.28642078  0.56355854  0.49522638     0.06700
C1568       C  0.29410650  0.57960156  0.52048530    -0.13900
S1569       S  0.29935592  0.61858504  0.43228049    -0.30900
H1570       H  0.28365062  0.58181434  0.39745462     0.11000
S1571       S  0.28234388  0.54300656  0.52278858    -0.28000
H1572       H  0.29731065  0.57909837  0.55475794     0.08200
H1573       H  0.36309217  0.63713520  0.52521658     0.26700
H1574       H  0.29372632  0.61188142  0.38943217     0.21500
H1575       H  0.29206490  0.53928025  0.49134909     0.26800
H1576       H  0.27114815  0.59150757  0.55279858     0.15600
C1577       C  0.32493430  0.70723286  0.51962359    -0.11700
C1578       C  0.31104267  0.69686570  0.48948812     0.14900
C1579       C  0.30482795  0.67812140  0.48512469     0.01800
C1580       C  0.31290234  0.67028572  0.50978318    -0.16000
C1581       C  0.32724368  0.68042847  0.54030393    -0.10800
C1582       C  0.33297152  0.69943227  0.54515356     0.08500
C1583       C  0.30391651  0.70613875  0.46142206     0.09500
S1584       S  0.28695931  0.66343042  0.44728858    -0.25200
H1585       H  0.30827269  0.65623105  0.50215698     0.19800
S1586       S  0.35007866  0.71423783  0.58453987    -0.30900
H1587       H  0.32968863  0.72169183  0.52262169     0.10100
C1588       C  0.29320632  0.71284017  0.47904566     0.03300
C1589       C  0.28628264  0.72096726  0.45094669    -0.13200
C1590       C  0.28982138  0.72259950  0.40536976    -0.08800
C1591       C  0.30114467  0.71641115  0.38819072     0.06700
C1592       C  0.30784997  0.70811922  0.41620893    -0.13900
S1593       S  0.28762252  0.71024647  0.53701374    -0.30900
H1594       H  0.27764227  0.72563146  0.46445306     0.11000
S1595       S  0.30805105  0.71911759  0.33127577    -0.28000
H1596       H  0.31634818  0.70325858  0.40270979     0.08200
H1597       H  0.34623613  0.72844325  0.58400259     0.26700
H1598       H  0.27749718  0.71906057  0.53644510     0.21500
H1599       H  0.31177268  0.73723741  0.32804065     0.26800
H1600       H  0.27708278  0.67244842  0.45045507     0.15600
C1601       C  0.53473029  0.83164651  0.40490333    -0.11700
C1602       C  0.52280092  0.83837448  0.40655631     0.14900
C1603       C  0.50511496  0.82780645  0.38843243     0.01800
C1604       C  0.49958552  0.81062290  0.37044642    -0.16000
C1605       C  0.51108383  0.80333648  0.37109024    -0.10800
C1606       C  0.52914002  0.81435417  0.38724892     0.08500
C1607       C  0.52867682  0.85590573  0.42949063     0.09500
S1608       S  0.48857643  0.83499203  0.38931616    -0.25200
H1609       H  0.48575533  0.80246035  0.35800777     0.19800
S1610       S  0.54577261  0.80734067  0.38608779    -0.30900
H1611       H  0.54842141  0.83984049  0.41812639     0.10100
C1612       C  0.53036058  0.85701659  0.47548754     0.03300
C1613       C  0.53359098  0.87295220  0.49690052    -0.13200
C1614       C  0.53499284  0.88808725  0.47367344    -0.08800
C1615       C  0.53367873  0.88689401  0.42689752     0.06700
C1616       C  0.53085517  0.87100454  0.40560210    -0.13900
S1617       S  0.52657446  0.83738587  0.50761493    -0.30900
H1618       H  0.53358202  0.87257972  0.53214646     0.11000
S1619       S  0.53394851  0.90471480  0.39358254    -0.28000
H1620       H  0.52935075  0.86986780  0.37020403     0.08200
H1621       H  0.54081143  0.79951694  0.34395550     0.26700
H1622       H  0.53159724  0.84614313  0.54869129     0.21500
H1623       H  0.53353374  0.89721066  0.35216232     0.26800
H1624       H  0.49359568  0.84355449  0.43059991     0.15600
C1625       C  0.53067112  0.67044719  0.40556299    -0.11700
C1626       C  0.53296781  0.68605999  0.42682998     0.14900
C1627       C  0.54165598  0.69082410  0.46810049     0.01800
C1628       C  0.54684721  0.67939563  0.48825187    -0.16000
C1629       C  0.54276682  0.66251700  0.46951998    -0.10800
C1630       C  0.53569051  0.65880443  0.42590951     0.08500
C1631       C  0.52513477  0.69643151  0.40665349     0.09500
S1632       S  0.54571847  0.71085085  0.49812869    -0.25200
H1633       H  0.55335142  0.68375651  0.51973525     0.19800
S1634       S  0.53206511  0.63878208  0.39632541    -0.30900
H1635       H  0.52440672  0.66713130  0.37335737     0.10100
C1636       C  0.53623585  0.71406436  0.38821547     0.03300
C1637       C  0.52814276  0.72391078  0.37335283    -0.13200
C1638       C  0.50911132  0.71646109  0.37627951    -0.08800
C1639       C  0.49804773  0.69866002  0.39453222     0.06700
C1640       C  0.50612924  0.68880169  0.40876872    -0.13900
S1641       S  0.56067440  0.72394727  0.38349443    -0.30900
H1642       H  0.53668181  0.73749026  0.35935310     0.11000
S1643       S  0.47377142  0.68821955  0.40365079    -0.28000
H1644       H  0.49759867  0.67533806  0.42347841     0.08200
H1645       H  0.52437659  0.64142825  0.35819479     0.26700
H1646       H  0.56457441  0.74051678  0.36342791     0.21500
H1647       H  0.47513485  0.70419135  0.42096916     0.26800
H1648       H  0.52984837  0.71053337  0.48432935     0.15600
C1649       C  0.41266528  0.72564142  0.44280336    -0.11700
C1650       C  0.40992901  0.71257783  0.47503798     0.14900
C1651       C  0.42349709  0.70794397  0.48090743     0.01800
C1652       C  0.43935776  0.71643731  0.45468067    -0.16000
C1653       C  0.44180773  0.72902931  0.42135685    -0.10800
C1654       C  0.42844486  0.73401122  0.41632831     0.08500
C1655       C  0.39206687  0.70288372  0.49881138     0.09500
S1656       S  0.42105450  0.69070120  0.51969548    -0.25200
H1657       H  0.44948158  0.71249229  0.45895270     0.19800
S1658       S  0.43090621  0.75128236  0.37769176    -0.30900
H1659       H  0.40233818  0.72928623  0.43812052     0.10100
C1660       C  0.39020046  0.70542971  0.54371721     0.03300
C1661       C  0.37287134  0.69543585  0.56407248    -0.13200
C1662       C  0.35690998  0.68250104  0.54094645    -0.08800
C1663       C  0.35923654  0.68065192  0.49464121     0.06700
C1664       C  0.37658609  0.69076889  0.47494879    -0.13900
S1665       S  0.40980386  0.72203299  0.57477723    -0.30900
H1666       H  0.37195672  0.69847684  0.59796714     0.11000
S1667       S  0.34083559  0.66481468  0.45908947    -0.28000
H1668       H  0.37830555  0.68908331  0.44032420     0.08200
H1669       H  0.44989453  0.76282353  0.38371563     0.26700
H1670       H  0.40108999  0.71804480  0.61612518     0.21500
H1671       H  0.35083711  0.66810166  0.41983353     0.26800
H1672       H  0.40193723  0.67945784  0.51660683     0.15600
C1673       C  0.51993796  0.83323008  0.09335132    -0.11700
C1674       C  0.52200005  0.83749351  0.04822173     0.14900
C1675       C  0.51934969  0.82379720  0.01779445     0.01800
C1676       C  0.51414292  0.80616909  0.03298991    -0.16000
C1677       C  0.51090507  0.80162012  0.07788404    -0.10800
C1678       C  0.51437888  0.81551824  0.10843918     0.08500
C1679       C  0.52623673  0.85604527  0.03381689     0.09500
S1680       S  0.52147064  0.82760532  0.95908369    -0.25200
H1681       H  0.51161421  0.79564353  0.00928128     0.19800
S1682       S  0.51225024  0.81162171  0.16707975    -0.30900
H1683       H  0.52239955  0.84375275  0.11700983     0.10100
C1684       C  0.51385202  0.86199172  0.04156242     0.03300
C1685       C  0.51759742  0.87894311  0.02464825    -0.13200
C1686       C  0.53321434  0.89014694  0.99832161    -0.08800
C1687       C  0.54636282  0.88469551  0.99398195     0.06700
C1688       C  0.54264944  0.86775302  0.01146284    -0.13900
S1689       S  0.49259615  0.84753427  0.07093288    -0.30900
H1690       H  0.50794267  0.88301867  0.03234914     0.11000
S1691       S  0.56804290  0.89910372  0.96639693    -0.28000
H1692       H  0.55243612  0.86339211  0.00718171     0.08200
H1693       H  0.51833271  0.79908268  0.16695835     0.26700
H1694       H  0.48639892  0.85996748  0.07165675     0.21500
H1695       H  0.57388234  0.88638146  0.96600342     0.26800
H1696       H  0.51454908  0.83943416  0.95820375     0.15600
C1697       C  0.53657333  0.71178092  0.07090807    -0.11700
C1698       C  0.52459801  0.69371269  0.05732964     0.14900
C1699       C  0.50553360  0.68607415  0.06185858     0.01800
C1700       C  0.49886564  0.69686642  0.07813747    -0.16000
C1701       C  0.51076422  0.71531158  0.08957670    -0.10800
C1702       C  0.52990475  0.72255571  0.08755554     0.08500
C1703       C  0.53217163  0.68320302  0.03734482     0.09500
S1704       S  0.48895878  0.66282528  0.04624352    -0.25200
H1705       H  0.48418063  0.69097958  0.07998410     0.19800
S1706       S  0.54654585  0.74516724  0.10662367    -0.30900
H1707       H  0.55122380  0.71752292  0.06839505     0.10100
C1708       C  0.53845318  0.68643766  0.99360253     0.03300
C1709       C  0.54245622  0.67419650  0.97312696    -0.13200
C1710       C  0.53995967  0.65837773  0.99509192    -0.08800
C1711       C  0.53579331  0.65661292  0.04090410     0.06700
C1712       C  0.53166106  0.66884894  0.06113176    -0.13900
S1713       S  0.54009624  0.70545011  0.96270413    -0.30900
H1714       H  0.54704082  0.67708067  0.93958478     0.11000
S1715       S  0.53473981  0.63834507  0.07395197    -0.28000
H1716       H  0.52724870  0.66681505  0.09518753     0.08200
H1717       H  0.53627303  0.74419018  0.14395047     0.26700
H1718       H  0.54789690  0.70313622  0.92429430     0.21500
H1719       H  0.53336536  0.64501913  0.11515230     0.26800
H1720       H  0.49889060  0.66191690  0.01040309     0.15600
C1721       C  0.29756337  0.62002972  0.95115079    -0.11700
C1722       C  0.30763541  0.61511422  0.97796537     0.14900
C1723       C  0.32677980  0.62642223  0.97881506     0.01800
C1724       C  0.33538055  0.64288709  0.95504410    -0.16000
C1725       C  0.32562285  0.64859670  0.92807203    -0.10800
C1726       C  0.30610430  0.63635099  0.92612641     0.08500
C1727       C  0.29782679  0.59853268  0.00630424     0.09500
S1728       S  0.34107413  0.62110469  0.01167774    -0.25200
H1729       H  0.34980055  0.65154905  0.96074341     0.19800
S1730       S  0.29160567  0.64065532  0.89085261    -0.30900
H1731       H  0.28282791  0.61107219  0.95047300     0.10100
C1732       C  0.29561534  0.59990149  0.05182415     0.03300
C1733       C  0.28750168  0.58397110  0.07811171    -0.13200
C1734       C  0.28154707  0.56662182  0.05987290    -0.08800
C1735       C  0.28380702  0.56539506  0.01401010     0.06700
C1736       C  0.29156827  0.58126234  0.98777373    -0.13900
S1737       S  0.30309779  0.62197653  0.07630359    -0.30900
H1738       H  0.28575311  0.58503362  0.11304101     0.11000
S1739       S  0.27829905  0.54430784  0.98721101    -0.28000
H1740       H  0.29349285  0.58025763  0.95285956     0.08200
H1741       H  0.27510572  0.62396236  0.89803331     0.26700
H1742       H  0.29802953  0.61563351  0.11982346     0.21500
H1743       H  0.28652500  0.53911084  0.01969610     0.26800
H1744       H  0.32994847  0.60192736  0.00860024     0.15600
C1745       C  0.33018407  0.65511742  0.77953969    -0.11700
C1746       C  0.33775756  0.67241477  0.75987277     0.14900
C1747       C  0.34433885  0.68783953  0.78717341     0.01800
C1748       C  0.34309120  0.68558665  0.83309471    -0.16000
C1749       C  0.33505563  0.66816172  0.85428326    -0.10800
C1750       C  0.32894489  0.65258645  0.82556788     0.08500
C1751       C  0.33849257  0.67364194  0.71071589     0.09500
S1752       S  0.35456800  0.71087342  0.76559824    -0.25200
H1753       H  0.34845349  0.69783393  0.85291620     0.19800
S1754       S  0.32159916  0.62940960  0.84325400    -0.30900
H1755       H  0.32569364  0.64342052  0.75813749     0.10100
C1756       C  0.35066993  0.67064975  0.68622347     0.03300
C1757       C  0.34969926  0.67010398  0.64004839    -0.13200
C1758       C  0.33750801  0.67349542  0.61594583    -0.08800
C1759       C  0.32453979  0.67564110  0.64187930     0.06700
C1760       C  0.32563832  0.67609252  0.68825514    -0.13900
S1761       S  0.36763701  0.66758472  0.71392051    -0.30900
H1762       H  0.35887421  0.66721142  0.62249488     0.11000
S1763       S  0.30479705  0.67552184  0.61959185    -0.28000
H1764       H  0.31572829  0.67744169  0.70761273     0.08200
H1765       H  0.31118872  0.62030208  0.80588417     0.26700
H1766       H  0.37682273  0.66709345  0.67593714     0.21500
H1767       H  0.30183563  0.68423204  0.65513630     0.26800
H1768       H  0.36139223  0.70786103  0.72644664     0.15600
C1769       C  0.38735137  0.68564976  0.92792724    -0.11700
C1770       C  0.39255353  0.70114265  0.95365630     0.14900
C1771       C  0.38087573  0.70816296  0.95595392     0.01800
C1772       C  0.36334052  0.69819479  0.93797110    -0.16000
C1773       C  0.35644085  0.68065391  0.91853184    -0.10800
C1774       C  0.36988365  0.67586892  0.90854516     0.08500
C1775       C  0.40935666  0.70880492  0.98083170     0.09500
S1776       S  0.38724779  0.72941516  0.98326009    -0.25200
H1777       H  0.35508526  0.70440048  0.94041380     0.19800
S1778       S  0.36509487  0.65669032  0.87412349    -0.30900
H1779       H  0.39678892  0.68080248  0.92445244     0.10100
C1780       C  0.40824497  0.70441854  0.02594291     0.03300
C1781       C  0.42419613  0.71261354  0.05156058    -0.13200
C1782       C  0.44137288  0.72516301  0.03312356    -0.08800
C1783       C  0.44236588  0.72957924  0.98772354     0.06700
C1784       C  0.42645024  0.72110890  0.96203482    -0.13900
S1785       S  0.38644850  0.68816964  0.05075207    -0.30900
H1786       H  0.42330006  0.70908305  0.08610714     0.11000
S1787       S  0.46320952  0.74666537  0.96101650    -0.28000
H1788       H  0.42727146  0.72466102  0.92748201     0.08200
H1789       H  0.38331889  0.66119540  0.86815847     0.26700
H1790       H  0.39312414  0.68827094  0.09308729     0.21500
H1791       H  0.46872260  0.75926125  0.99584626     0.26800
H1792       H  0.40612350  0.73797360  0.97480982     0.15600
C1793       C  0.13828598  0.67757190  0.03334376    -0.11700
C1794       C  0.15192804  0.69255867  0.00952405     0.14900
C1795       C  0.14786944  0.69616055  0.96713117     0.01800
C1796       C  0.13109415  0.68377325  0.94776560    -0.16000
C1797       C  0.11806531  0.66737749  0.96931453    -0.10800
C1798       C  0.12135757  0.66513366  0.01419127     0.08500
C1799       C  0.17090020  0.70251648  0.02690545     0.09500
S1800       S  0.16400871  0.71585541  0.93494007    -0.25200
H1801       H  0.12898773  0.68703560  0.91495302     0.19800
S1802       S  0.10490400  0.64562061  0.04670379    -0.30900
H1803       H  0.14138425  0.67496012  0.06613870     0.10100
C1804       C  0.17566136  0.71298221  0.06571597     0.03300
C1805       C  0.19376942  0.72155931  0.08110718    -0.13200
C1806       C  0.20724441  0.71994718  0.05834968    -0.08800
C1807       C  0.20226325  0.70912556  0.01991896     0.06700
C1808       C  0.18428733  0.70071800  0.00454865    -0.13900
S1809       S  0.15889275  0.71601410  0.09458699    -0.30900
H1810       H  0.19755243  0.72987385  0.11046788     0.11000
S1811       S  0.21787410  0.70469601  0.99012582    -0.28000
H1812       H  0.18056517  0.69232864  0.97526451     0.08200
H1813       H  0.11345693  0.65208812  0.08765471     0.26700
H1814       H  0.17029331  0.72646555  0.12945203     0.21500
H1815       H  0.22608094  0.70257069  0.02801239     0.26800
H1816       H  0.17324675  0.72717874  0.97097498     0.15600
C1817       C  0.30621650  0.72131833  0.98840614    -0.11700
C1818       C  0.29644214  0.70211234  0.98715744     0.14900
C1819       C  0.27989376  0.69225237  0.01116445     0.01800
C1820       C  0.27349839  0.70180323  0.03558618    -0.16000
C1821       C  0.28329022  0.72110677  0.03701855    -0.10800
C1822       C  0.30007779  0.73087473  0.01351492     0.08500
C1823       C  0.30522655  0.69293274  0.96565314     0.09500
S1824       S  0.26646922  0.66750526  0.01251736    -0.25200
H1825       H  0.26066640  0.69404303  0.05336323     0.19800
S1826       S  0.31504431  0.75541301  0.01634808    -0.30900
H1827       H  0.31922511  0.72891849  0.97123125     0.10100
C1828       C  0.30589072  0.69149836  0.91978881     0.03300
C1829       C  0.31518608  0.68341485  0.90136573    -0.13200
C1830       C  0.32467460  0.67713143  0.92757706    -0.08800
C1831       C  0.32365342  0.67876716  0.97453941     0.06700
C1832       C  0.31394823  0.68645022  0.99228761    -0.13900
S1833       S  0.29443645  0.69958054  0.88465741    -0.30900
H1834       H  0.31428074  0.68151983  0.86629434     0.11000
S1835       S  0.33548553  0.67241741  0.01365289    -0.28000
H1836       H  0.31353109  0.68797240  0.02754882     0.08200
H1837       H  0.31357050  0.75600779  0.06238097     0.26700
H1838       H  0.30092192  0.69698142  0.84438519     0.21500
H1839       H  0.32741937  0.67399468  0.05247719     0.26800
H1840       H  0.27220783  0.66472015  0.97142600     0.15600
C1841       C  0.47808893  0.34479492  0.57476894    -0.11700
C1842       C  0.47522954  0.32948077  0.55102950     0.14900
C1843       C  0.46725180  0.32625545  0.50910189     0.01800
C1844       C  0.46391055  0.33920544  0.49005007    -0.16000
C1845       C  0.46857016  0.35576114  0.51146824    -0.10800
C1846       C  0.47452116  0.35777045  0.55595709     0.08500
C1847       C  0.48235544  0.31810736  0.56848309     0.09500
S1848       S  0.46203205  0.30635380  0.47697609    -0.25200
H1849       H  0.45768183  0.33594482  0.45806513     0.19800
S1850       S  0.47813890  0.37699667  0.58904015    -0.30900
H1851       H  0.48374902  0.34686936  0.60753800     0.10100
C1852       C  0.49987245  0.32177488  0.55619667     0.03300
C1853       C  0.50577317  0.30998512  0.57039982    -0.13200
C1854       C  0.49452544  0.29455189  0.59676441    -0.08800
C1855       C  0.47731582  0.29146645  0.61084791     0.06700
C1856       C  0.47137129  0.30318228  0.59629997    -0.13900
S1857       S  0.51460181  0.34134438  0.52175775    -0.30900
H1858       H  0.51904264  0.31254282  0.55997461     0.11000
S1859       S  0.46262564  0.27329728  0.64846961    -0.28000
H1860       H  0.45804112  0.30058527  0.60641581     0.08200
H1861       H  0.48414135  0.37239540  0.62736509     0.26700
H1862       H  0.53011377  0.33961546  0.52410004     0.21500
H1863       H  0.47700392  0.27524410  0.67507034     0.26800
H1864       H  0.45786783  0.29431392  0.51275874     0.15600
C1865       C  0.60947797  0.30856685  0.42778200    -0.11700
C1866       C  0.61018231  0.30794653  0.47375593     0.14900
C1867       C  0.62735198  0.31582955  0.49403812     0.01800
C1868       C  0.64322501  0.32568318  0.46876240    -0.16000
C1869       C  0.64316369  0.32749230  0.42206863    -0.10800
C1870       C  0.62544716  0.31754643  0.40149575     0.08500
C1871       C  0.59291852  0.29941215  0.50006104     0.09500
S1872       S  0.63006611  0.31422914  0.55249273    -0.25200
H1873       H  0.65600557  0.33261606  0.48657056     0.19800
S1874       S  0.62081922  0.31554169  0.34330650    -0.30900
H1875       H  0.59618229  0.30195464  0.41210094     0.10100
C1876       C  0.58870187  0.30998974  0.52793952     0.03300
C1877       C  0.57306408  0.30124350  0.55490873    -0.13200
C1878       C  0.56123877  0.28214635  0.55413061    -0.08800
C1879       C  0.56534412  0.27157326  0.52585576     0.06700
C1880       C  0.58099659  0.28031382  0.49890010    -0.13900
S1881       S  0.60292794  0.33469988  0.52856249    -0.30900
H1882       H  0.56979128  0.30935452  0.57611903     0.11000
S1883       S  0.55173497  0.24686374  0.52437030    -0.28000
H1884       H  0.58424346  0.27210805  0.47790659     0.08200
H1885       H  0.63258503  0.30935154  0.33172458     0.26700
H1886       H  0.59222333  0.33792403  0.55820444     0.21500
H1887       H  0.54742877  0.24456453  0.56955023     0.26800
H1888       H  0.61395159  0.29709993  0.55866733     0.15600
C1889       C  0.49415159  0.32777133  0.90916424    -0.11700
C1890       C  0.47533287  0.31857448  0.91834904     0.14900
C1891       C  0.46445487  0.29961335  0.90965269     0.01800
C1892       C  0.47282832  0.29009298  0.89500805    -0.16000
C1893       C  0.49183577  0.29912489  0.88758744    -0.10800
C1894       C  0.50252707  0.31831170  0.89430128     0.08500
C1895       C  0.46810678  0.32895645  0.94103019     0.09500
S1896       S  0.43993677  0.28676968  0.91719969    -0.25200
H1897       H  0.46438507  0.27546260  0.88935027     0.19800
S1898       S  0.52705705  0.33134080  0.88813081    -0.30900
H1899       H  0.50256277  0.34232924  0.91586264     0.10100
C1900       C  0.46366747  0.32629635  0.98609579     0.03300
C1901       C  0.45973322  0.33832418  0.00807649    -0.13200
C1902       C  0.46065100  0.35354102  0.98654408    -0.08800
C1903       C  0.46364667  0.35509002  0.94012052     0.06700
C1904       C  0.46752524  0.34295593  0.91830273    -0.13900
S1905       S  0.46455460  0.30850238  0.01672846    -0.30900
H1906       H  0.45680392  0.33595875  0.04261220     0.11000
S1907       S  0.46359831  0.37301306  0.90800889    -0.28000
H1908       H  0.47080171  0.34473723  0.88352455     0.08200
H1909       H  0.52965486  0.31879125  0.91258650     0.26700
H1910       H  0.45784713  0.31088296  0.05689608     0.21500
H1911       H  0.46570215  0.36723131  0.86629106     0.26800
H1912       H  0.43736475  0.30171655  0.91226980     0.15600
C1913       C  0.59488123  0.31900307  0.93614576    -0.11700
C1914       C  0.59701334  0.30867800  0.96916698     0.14900
C1915       C  0.58203654  0.29114397  0.98009156     0.01800
C1916       C  0.56537110  0.28440922  0.95806082    -0.16000
C1917       C  0.56332936  0.29450073  0.92415614    -0.10800
C1918       C  0.57830523  0.31216354  0.91361425     0.08500
C1919       C  0.61497289  0.31662349  0.99167427     0.09500
S1920       S  0.58348812  0.27641472  0.02064646    -0.25200
H1921       H  0.55410750  0.27080001  0.96631935     0.19800
S1922       S  0.57708975  0.32691909  0.87282636    -0.30900
H1923       H  0.60624973  0.33257159  0.92799677     0.10100
C1924       C  0.63064356  0.31973138  0.96898479     0.03300
C1925       C  0.64729857  0.32729077  0.99125895    -0.13200
C1926       C  0.64901471  0.33096740  0.03712017    -0.08800
C1927       C  0.63321030  0.32929718  0.05871880     0.06700
C1928       C  0.61645982  0.32159576  0.03597251    -0.13900
S1929       S  0.62932999  0.31310477  0.91203699    -0.30900
H1930       H  0.65906069  0.32945322  0.97289510     0.11000
S1931       S  0.63355748  0.33842727  0.11259223    -0.28000
H1932       H  0.60436393  0.31973476  0.05258293     0.08200
H1933       H  0.55921584  0.32228582  0.88422270     0.26700
H1934       H  0.64718797  0.31627869  0.90847815     0.21500
H1935       H  0.61790546  0.33978361  0.10753544     0.26800
H1936       H  0.60202310  0.28243190  0.01316953     0.15600
C1937       C  0.55233447  0.08495012  0.96845928    -0.11700
C1938       C  0.54801730  0.09241313  0.00431359     0.14900
C1939       C  0.56063893  0.10027362  0.03919327     0.01800
C1940       C  0.57670366  0.09974219  0.03835932    -0.16000
C1941       C  0.58076636  0.09182160  0.00329528    -0.10800
C1942       C  0.56886086  0.08517582  0.96673472     0.08500
C1943       C  0.53018455  0.09152750  0.00527907     0.09500
S1944       S  0.55742353  0.11174379  0.08503445    -0.25200
H1945       H  0.58651942  0.10621946  0.06467623     0.19800
S1946       S  0.57399652  0.07765009  0.91604320    -0.30900
H1947       H  0.54284738  0.07912612  0.94129214     0.10100
C1948       C  0.52539211  0.10025703  0.97326406     0.03300
C1949       C  0.50887358  0.09993065  0.97760253    -0.13200
C1950       C  0.49721623  0.09191843  0.01449977    -0.08800
C1951       C  0.50194637  0.08254144  0.04587336     0.06700
C1952       C  0.51811777  0.08224681  0.04012621    -0.13900
S1953       S  0.54074138  0.11279105  0.92814255    -0.30900
H1954       H  0.50520740  0.10625141  0.95193375     0.11000
S1955       S  0.48863049  0.07138364  0.09465387    -0.28000
H1956       H  0.52182785  0.07519435  0.06381091     0.08200
H1957       H  0.58972168  0.07766615  0.92941079     0.26700
H1958       H  0.52946539  0.11802291  0.90703014     0.21500
H1959       H  0.50093492  0.06744334  0.11542993     0.26800
H1960       H  0.54798969  0.11849443  0.06123585     0.15600
C1961       C  0.49588116  0.19040897  0.93173743    -0.11700
C1962       C  0.47707088  0.17771453  0.92773498     0.14900
C1963       C  0.46552548  0.18380561  0.91179490     0.01800
C1964       C  0.47316566  0.20222372  0.89902079    -0.16000
C1965       C  0.49215176  0.21465632  0.90092231    -0.10800
C1966       C  0.50350376  0.20869415  0.91879868     0.08500
C1967       C  0.47032152  0.15846088  0.94139713     0.09500
S1968       S  0.44116467  0.16874014  0.90531793    -0.25200
H1969       H  0.46429383  0.20669204  0.88587667     0.19800
S1970       S  0.52771126  0.22381364  0.92760392    -0.30900
H1971       H  0.50474189  0.18599695  0.94531722     0.10100
C1972       C  0.47697703  0.14819721  0.92102294     0.03300
C1973       C  0.47313433  0.13150818  0.93981322    -0.13200
C1974       C  0.46273622  0.12468644  0.97883582    -0.08800
C1975       C  0.45331313  0.13342921  0.99388763     0.06700
C1976       C  0.45801877  0.15064901  0.97671088    -0.13900
S1977       S  0.49043151  0.15638882  0.87103143    -0.30900
H1978       H  0.47872498  0.12397726  0.92457754     0.11000
S1979       S  0.43386257  0.12284916  0.03069595    -0.28000
H1980       H  0.45189429  0.15793208  0.99070547     0.08200
H1981       H  0.52607881  0.23855683  0.94233827     0.26700
H1982       H  0.49272833  0.14132625  0.86490257     0.21500
H1983       H  0.42782949  0.10481070  0.01732880     0.26800
H1984       H  0.44176694  0.15289463  0.89602299     0.15600
C1985       C  0.49213180  0.94693317  0.94752185    -0.11700
C1986       C  0.47524868  0.93181187  0.93483414     0.14900
C1987       C  0.47405787  0.91500351  0.92541148     0.01800
C1988       C  0.48954078  0.91354127  0.92997374    -0.16000
C1989       C  0.50622321  0.92832891  0.94493715    -0.10800
C1990       C  0.50756978  0.94531873  0.95307933     0.08500
C1991       C  0.45873690  0.93334661  0.93444614     0.09500
S1992       S  0.45310984  0.89477363  0.90833808    -0.25200
H1993       H  0.48843838  0.90054274  0.92278101     0.19800
S1994       S  0.52816341  0.96500083  0.97322131    -0.30900
H1995       H  0.49307543  0.95984671  0.95483105     0.10100
C1996       C  0.44934991  0.93190660  0.97378769     0.03300
C1997       C  0.43201185  0.92992700  0.97189690    -0.13200
C1998       C  0.42370646  0.92925358  0.93142460    -0.08800
C1999       C  0.43381206  0.93210454  0.89210162     0.06700
C2000       C  0.45117797  0.93401534  0.89412769    -0.13900
S2001       S  0.45884537  0.93115877  0.02629866    -0.30900
H2002       H  0.42456339  0.92820718  0.00215654     0.11000
S2003       S  0.42448129  0.93207036  0.83893324    -0.28000
H2004       H  0.45861156  0.93521034  0.86416219     0.08200
H2005       H  0.53225575  0.95477800  0.00241677     0.26700
H2006       H  0.44469955  0.92998996  0.05263915     0.21500
H2007       H  0.43941722  0.93471619  0.81332832     0.26800
H2008       H  0.44120938  0.89775427  0.93413520     0.15600
C2009       C  0.32710204  0.87181116  0.01933759    -0.11700
C2010       C  0.33017797  0.85739088  0.02719092     0.14900
C2011       C  0.34655436  0.85905434  0.01180902     0.01800
C2012       C  0.35972695  0.87521576  0.99093056    -0.16000
C2013       C  0.35727530  0.89025823  0.98404216    -0.10800
C2014       C  0.34004384  0.88786092  0.99693519     0.08500
C2015       C  0.31549714  0.83997061  0.04726751     0.09500
S2016       S  0.35116785  0.84063132  0.01566740    -0.25200
H2017       H  0.37148502  0.87525381  0.97767067     0.19800
S2018       S  0.33285527  0.90395361  0.98457715    -0.30900
H2019       H  0.31416992  0.87025365  0.02938042     0.10100
C2020       C  0.31781037  0.83360391  0.08822529     0.03300
C2021       C  0.30552731  0.81535013  0.10115605    -0.13200
C2022       C  0.29075244  0.80334874  0.07427874    -0.08800
C2023       C  0.28781908  0.81027649  0.03463473     0.06700
C2024       C  0.30006728  0.82848068  0.02192192    -0.13900
S2025       S  0.33668354  0.84861583  0.12341114    -0.30900
H2026       H  0.30769641  0.81027589  0.13187084     0.11000
S2027       S  0.26983348  0.79625552  0.99658126    -0.28000
H2028       H  0.29826522  0.83334370  0.99040479     0.08200
H2029       H  0.33948648  0.90758582  0.94120518     0.26700
H2030       H  0.33150069  0.83647626  0.15945295     0.21500
H2031       H  0.27398806  0.78225852  0.99589857     0.26800
H2032       H  0.33307057  0.82630598  0.00854259     0.15600
C2033       C  0.40756651  0.98661571  0.00362381    -0.11700
C2034       C  0.40856374  0.99777458  0.96827307     0.14900
C2035       C  0.40268540  0.98988226  0.92634995     0.01800
C2036       C  0.39656703  0.97132456  0.92040294    -0.16000
C2037       C  0.39525438  0.95999792  0.95561127    -0.10800
C2038       C  0.40111309  0.96790937  0.99778448     0.08500
C2039       C  0.41775470  0.01788399  0.97478173     0.09500
S2040       S  0.40265616  0.00276549  0.87908535    -0.25200
H2041       H  0.39279002  0.96571293  0.88780526     0.19800
S2042       S  0.40237582  0.95549423  0.04451189    -0.30900
H2043       H  0.41259673  0.99271192  0.03561371     0.10100
C2044       C  0.41046544  0.02573923  0.00277325     0.03300
C2045       C  0.42018519  0.04482016  0.00893674    -0.13200
C2046       C  0.43695836  0.05615436  0.98753583    -0.08800
C2047       C  0.44401054  0.04830479  0.95877501     0.06700
C2048       C  0.43442484  0.02930274  0.95297061    -0.13900
S2049       S  0.38888152  0.01151057  0.03075592    -0.30900
H2050       H  0.41501023  0.05087972  0.03151231     0.11000
S2051       S  0.46556914  0.06163610  0.93018324    -0.28000
H2052       H  0.44012097  0.02330321  0.93164171     0.08200
H2053       H  0.40783180  0.94513030  0.02005013     0.26700
H2054       H  0.38843372  0.02576977  0.05283595     0.21500
H2055       H  0.46487561  0.07770719  0.92606433     0.26800
H2056       H  0.39978261  0.01522038  0.90281746     0.15600
C2057       C  0.32081197  0.82548484  0.37949220    -0.11700
C2058       C  0.31124265  0.83466246  0.38510478     0.14900
C2059       C  0.29236868  0.82545552  0.37548544     0.01800
C2060       C  0.28331408  0.80696269  0.36319213    -0.16000
C2061       C  0.29275680  0.79752090  0.35933144    -0.10800
C2062       C  0.31180692  0.80704279  0.36727878     0.08500
C2063       C  0.32109505  0.85279945  0.40671043     0.09500
S2064       S  0.27904759  0.83635613  0.37927554    -0.25200
H2065       H  0.26875741  0.79988060  0.35657515     0.19800
S2066       S  0.32515704  0.79614619  0.36634893    -0.30900
H2067       H  0.33527097  0.83246858  0.38730025     0.10100
C2068       C  0.31860482  0.85447424  0.45179602     0.03300
C2069       C  0.33102611  0.87060711  0.47379069    -0.13200
C2070       C  0.34661484  0.88495223  0.45231368    -0.08800
C2071       C  0.34769920  0.88391912  0.40571768     0.06700
C2072       C  0.33509690  0.86778328  0.38375888    -0.13900
S2073       S  0.30052673  0.83539718  0.48238925    -0.30900
H2074       H  0.32858308  0.87133652  0.50814161     0.11000
S2075       S  0.36571985  0.90247957  0.37375871    -0.28000
H2076       H  0.33667122  0.86639707  0.34888866     0.08200
H2077       H  0.31195157  0.78022358  0.38876291     0.26700
H2078       H  0.30554840  0.84325434  0.52443596     0.21500
H2079       H  0.35977881  0.89459152  0.33198308     0.26800
H2080       H  0.29377865  0.85448163  0.37441477     0.15600
C2081       C  0.39348421  0.91952944  0.67005079    -0.11700
C2082       C  0.37772553  0.91621857  0.69284837     0.14900
C2083       C  0.36189753  0.91195876  0.66860222     0.01800
C2084       C  0.36225691  0.91126070  0.62264457    -0.16000
C2085       C  0.37773946  0.91372118  0.59983566    -0.17200
C2086       C  0.39345100  0.91766507  0.62431254     0.08500
C2087       C  0.37810016  0.91695415  0.74175748     0.09500
S2088       S  0.34057935  0.90658949  0.69420434    -0.25200
H2089       H  0.35012260  0.90836904  0.60456680     0.19800
S2090       S  0.41312574  0.91850016  0.60022380    -0.30900
H2091       H  0.40568292  0.92276556  0.68832516     0.10100
C2092       C  0.38144276  0.90505336  0.76717830     0.03300
C2093       C  0.38146899  0.90609528  0.81319344    -0.13200
C2094       C  0.37808322  0.91862604  0.83455522    -0.08800
C2095       C  0.37361759  0.92969577  0.80924599     0.06700
C2096       C  0.37434880  0.92924100  0.76325618    -0.13900
S2097       S  0.38511127  0.88809672  0.74142236    -0.30900
H2098       H  0.38437719  0.89726260  0.83284953     0.11000
S2099       S  0.36536107  0.94344474  0.83299399    -0.28000
H2100       H  0.37133035  0.93809319  0.74398180     0.08200
H2101       H  0.40231478  0.90231998  0.57629982     0.26700
H2102       H  0.38618419  0.87971062  0.78035359     0.21500
H2103       H  0.35909532  0.93368842  0.87287740     0.26800
H2104       H  0.34234101  0.89754444  0.73098806     0.15600
C2105       C  0.44692600  0.93151126  0.48257392    -0.11700
C2106       C  0.44714479  0.91542197  0.49089549     0.14900
C2107       C  0.43045071  0.89860362  0.49628735     0.01800
C2108       C  0.41397887  0.89835805  0.49358320    -0.16000
C2109       C  0.41367938  0.91451638  0.48630875    -0.10800
C2110       C  0.43041121  0.93122309  0.47990145     0.08500
C2111       C  0.46499157  0.91676272  0.49537805     0.09500
S2112       S  0.42892652  0.87704946  0.50871973    -0.25200
H2113       H  0.40125311  0.88549584  0.49907614     0.19800
S2114       S  0.43161561  0.95244793  0.46667701    -0.30900
H2115       H  0.45974305  0.94438661  0.47806849     0.10100
C2116       C  0.47388733  0.91462025  0.45896637     0.03300
C2117       C  0.49012100  0.91459184  0.46543784    -0.13200
C2118       C  0.49778829  0.91686466  0.50759100    -0.08800
C2119       C  0.48898330  0.91948531  0.54392858     0.06700
C2120       C  0.47268521  0.91941289  0.53727791    -0.13900
S2121       S  0.46424026  0.91137354  0.40456658    -0.30900
H2122       H  0.49687620  0.91272509  0.43750746     0.11000
S2123       S  0.49726487  0.92140234  0.59940983    -0.28000
H2124       H  0.46552769  0.92086907  0.56496299     0.08200
H2125       H  0.41605146  0.94402762  0.43980295     0.26700
H2126       H  0.47823907  0.91053229  0.38218455     0.21500
H2127       H  0.48535502  0.92606926  0.61947941     0.26800
H2128       H  0.44718725  0.88220467  0.50111491     0.15600
C2129       C  0.48276518  0.15380666  0.50430053    -0.11700
C2130       C  0.47319555  0.15232198  0.54289721     0.14900
C2131       C  0.45980634  0.13479376  0.55854044     0.01800
C2132       C  0.45645537  0.11909042  0.53546260    -0.16000
C2133       C  0.46645190  0.12037559  0.49714265    -0.10800
C2134       C  0.47966548  0.13826476  0.48125242     0.08500
C2135       C  0.47784728  0.16957913  0.56550941     0.09500
S2136       S  0.44662927  0.13152165  0.60785478    -0.25200
H2137       H  0.44620594  0.10593969  0.54862123     0.19800
S2138       S  0.49326038  0.14185190  0.43208839    -0.30900
H2139       H  0.49297422  0.16736079  0.49259090     0.10100
C2140       C  0.49346863  0.17872550  0.59227741     0.03300
C2141       C  0.49898090  0.19627980  0.60823268    -0.13200
C2142       C  0.48932093  0.20508378  0.59760707    -0.08800
C2143       C  0.47313289  0.19540810  0.57225692     0.06700
C2144       C  0.46772992  0.17791348  0.55618742    -0.13900
S2145       S  0.50666606  0.16818324  0.60501697    -0.30900
H2146       H  0.51129474  0.20344308  0.62776186     0.11000
S2147       S  0.45872002  0.20446031  0.55909583    -0.28000
H2148       H  0.45571130  0.17085293  0.53555688     0.08200
H2149       H  0.50189148  0.16107356  0.42980592     0.26700
H2150       H  0.52064435  0.18303180  0.62840220     0.21500
H2151       H  0.45956661  0.21134716  0.60159621     0.26800
H2152       H  0.45983629  0.14744322  0.62953693     0.15600
C2153       C  0.43951968  0.08128892  0.18799886    -0.11700
C2154       C  0.45562656  0.08661180  0.21150187     0.14900
C2155       C  0.47216058  0.09265561  0.18835890     0.01800
C2156       C  0.47247344  0.09449505  0.14270958    -0.16000
C2157       C  0.45642963  0.08911910  0.11909298    -0.10800
C2158       C  0.43968746  0.08241624  0.14198619     0.08500
C2159       C  0.45516596  0.08723157  0.26004208     0.09500
S2160       S  0.49333643  0.09845876  0.21516213    -0.25200
H2161       H  0.48543386  0.10038709  0.12541800     0.19800
S2162       S  0.41815863  0.07559626  0.11547335    -0.30900
H2163       H  0.42682255  0.07668860  0.20574428     0.10100
C2164       C  0.46409491  0.10409693  0.28233510     0.03300
C2165       C  0.46467889  0.10416526  0.32826012    -0.13200
C2166       C  0.45595519  0.08773677  0.35278252    -0.08800
C2167       C  0.44582735  0.07085724  0.33034110     0.06700
C2168       C  0.44575563  0.07080404  0.28411978    -0.13900
S2169       S  0.47460226  0.12559675  0.25235723    -0.30900
H2170       H  0.47241829  0.11714333  0.34509797     0.11000
S2171       S  0.43201365  0.04947507  0.35972260    -0.28000
H2172       H  0.43841186  0.05796770  0.26650349     0.08200
H2173       H  0.42392424  0.07825917  0.07151824     0.26700
H2174       H  0.47932770  0.13711168  0.28918108     0.21500
H2175       H  0.42634821  0.03789342  0.32288489     0.26800
H2176       H  0.48524483  0.08651020  0.25126296     0.15600
C2177       C  0.40175793  0.98185859  0.44810869    -0.11700
C2178       C  0.40595259  0.99139916  0.48800055     0.14900
C2179       C  0.40119921  0.98154169  0.52802795     0.01800
C2180       C  0.39301054  0.96246599  0.52735676    -0.16000
C2181       C  0.38924238  0.95287442  0.48757090    -0.10800
C2182       C  0.39349830  0.96268629  0.44737862     0.08500
C2183       C  0.41704567  0.01166224  0.48658383     0.09500
S2184       S  0.40611961  0.99254572  0.58097333    -0.25200
H2185       H  0.38978933  0.95503140  0.55831412     0.19800
S2186       S  0.38997396  0.95124838  0.39523721    -0.30900
H2187       H  0.40568236  0.98959563  0.41758062     0.10100
C2188       C  0.43629518  0.02090519  0.48773501     0.03300
C2189       C  0.44649033  0.04002156  0.48281612    -0.13200
C2190       C  0.43784482  0.05013023  0.47715453    -0.08800
C2191       C  0.41849969  0.04085942  0.47712466     0.06700
C2192       C  0.40831851  0.02171982  0.48185884    -0.13900
S2193       S  0.44786813  0.00827326  0.49426135    -0.30900
H2194       H  0.46130832  0.04716109  0.48267174     0.11000
S2195       S  0.40599598  0.05241412  0.46889698    -0.28000
H2196       H  0.39350280  0.01455041  0.48083541     0.08200
H2197       H  0.39758798  0.96703080  0.36840343     0.26700
H2198       H  0.46580287  0.02358207  0.49486805     0.21500
H2199       H  0.41836810  0.06540504  0.43843362     0.26800
H2200       H  0.40532451  0.00792223  0.56749790     0.15600
C2201       C  0.52241494  0.08719111  0.40764140    -0.11700
C2202       C  0.52999991  0.08580046  0.44729771     0.14900
C2203       C  0.52113017  0.08476564  0.48743679     0.01800
C2204       C  0.50506072  0.08538268  0.48698558    -0.16000
C2205       C  0.49785930  0.08751018  0.44745454    -0.10800
C2206       C  0.50658383  0.08824762  0.40733418     0.08500
C2207       C  0.54803428  0.08728110  0.44591004     0.09500
S2208       S  0.52981415  0.08317822  0.54033153    -0.25200
H2209       H  0.49837741  0.08473011  0.51789158     0.19800
S2210       S  0.49904844  0.09196013  0.35518310    -0.30900
H2211       H  0.52933234  0.08823950  0.37684143     0.10100
C2212       C  0.55004280  0.07205354  0.45286479     0.03300
C2213       C  0.56767390  0.07461092  0.45342675    -0.13200
C2214       C  0.58331526  0.09207859  0.44678434    -0.08800
C2215       C  0.58108844  0.10718350  0.43788725     0.06700
C2216       C  0.56353219  0.10459514  0.43808095    -0.13900
S2217       S  0.53018183  0.04944777  0.46102286    -0.30900
H2218       H  0.56931472  0.06302828  0.46000646     0.11000
S2219       S  0.59970866  0.13005949  0.42494982    -0.28000
H2220       H  0.56189584  0.11623594  0.43207769     0.08200
H2221       H  0.49627147  0.10582229  0.37117906     0.26700
H2222       H  0.53967323  0.04001733  0.46407005     0.21500
H2223       H  0.61138521  0.12494331  0.40589924     0.26800
H2224       H  0.54848119  0.09318916  0.52902774     0.15600
loop_ 
_geom_bond_atom_site_label_1 
_geom_bond_atom_site_label_2 
_geom_bond_distance 
_geom_bond_site_symmetry_2 
_ccdc_geom_bond_type 
C1            C2   1.552       .  S
C1            C7   1.536       .  S
C1            C5   1.537       .  S
C1         C2133   1.538       .  S
C2            H9   1.082       .  S
C2            C3   1.374       .  D
C3            C4   1.537       .  S
C3         C2190   1.480       .  S
C4            C8   1.538       .  S
C4            C6   1.531       .  S
C4           H10   1.109       .  S
C5           H11   1.087       .  S
C5            C6   1.358       .  D
C6         C2205   1.481       .  S
C7           H12   1.086       .  S
C7            C8   1.365       .  D
C8         C2166   1.489       .  S
C13          C14   1.541       .  S
C13          C19   1.552       .  S
C13          C17   1.538       .  S
C13        C2070   1.543       .  S
C14          H21   1.086       .  S
C14          C15   1.368       .  D
C15          C16   1.537       .  S
C15        C2181   1.484       .  S
C16          C20   1.535       .  S
C16          C18   1.537       .  S
C16          H22   1.109       .  S
C17          H23   1.087       .  S
C17          C18   1.362       .  D
C18        C2109   1.485       .  S
C19          H24   1.079       .  S
C19          C20   1.367       .  D
C20        C2085   1.494       .  S
C25          C26   1.550       .  S
C25          C31   1.531       .  S
C25          C29   1.543       .  S
C25        C2013   1.546       .  S
C26          H33   1.084       .  S
C26          C27   1.369       .  D
C27          C28   1.538       .  S
C27        C1998   1.495       .  S
C28          C32   1.542       .  S
C28          C30   1.541       .  S
C28          H34   1.109       .  S
C29          H35   1.084   1_556  S
C29          C30   1.371       .  D
C30        C2037   1.490       .  S
C31          H36   1.087       .  S
C31          C32   1.360       .  D
C32        C2094   1.481       .  S
C37          C38   1.549   1_554  S
C37          C43   1.536       .  S
C37          C41   1.537   1_554  S
C37        C1974   1.538   1_554  S
C38          H45   1.084       .  S
C38          C39   1.376   1_556  D
C39          C40   1.543       .  S
C39        C1950   1.512       .  S
C40          C44   1.539       .  S
C40          C42   1.528       .  S
C40          H46   1.102       .  S
C41          H47   1.086       .  S
C41          C42   1.363   1_556  D
C42        C2046   1.475   1_554  S
C43          H48   1.083       .  S
C43          C44   1.360       .  D
C44        C2157   1.472       .  S
In49         O51   2.263       .  S
In49         O52   2.258       .  S
In49         O60   2.257       .  S
In49         O54   2.249       .  S
In49         O56   2.259       .  S
In49         O57   2.256       .  S
In49         O58   2.237       .  S
In49         O61   2.253       .  S
C50          O56   1.260       .  A
C50          O58   1.260       .  A
C50        C1965   1.480       .  S
O51          C59   1.259       .  A
O52          C59   1.257       .  A
C53          O60   1.261       .  A
C53          O54   1.259       .  A
C53        C1893   1.485       .  S
C55          O57   1.261       .  A
C55          O61   1.260       .  A
C55        C1917   1.485       .  S
C59          C72   1.469       .  S
In62         O64   2.253       .  S
In62         O65   2.259       .  S
In62         O73   2.250       .  S
In62         O67   2.251       .  S
In62         O69   2.260       .  S
In62         O70   2.254       .  S
In62         O71   2.245       .  S
In62         O74   2.254       .  S
C63          O69   1.261       .  A
C63          O71   1.258       .  A
C63        C1854   1.482       .  S
O64          C72   1.258       .  A
O65          C72   1.261       .  A
C66          O73   1.262       .  A
C66          O67   1.262       .  A
C66        C2142   1.490       .  S
C68          O70   1.262       .  A
C68          O74   1.260       .  A
C68        C1878   1.481       .  S
In75         O77   2.245       .  S
In75         O78   2.263       .  S
In75         O86   2.261       .  S
In75         O80   2.250       .  S
In75         O82   2.260       .  S
In75         O83   2.268       .  S
In75         O84   2.260       .  S
In75         O87   2.243       .  S
C76          O82   1.259       .  A
C76          O84   1.259       .  A
C76        C2022   1.488       .  S
O77          C85   1.260       .  A
O78          C85   1.261       .  A
C79          O86   1.259       .  A
C79          O80   1.259       .  A
C79        C1806   1.482       .  S
C81          O83   1.263       .  A
C81          O87   1.259       .  A
C81        C1821   1.491       .  S
C85         C126   1.468       .  S
C88        C1725   1.576       .  S
C88        C1749   1.587       .  S
C88        C1773   1.588       .  S
C88        C1830   1.587       .  S
In89         O91   2.253       .  S
In89         O92   2.265       .  S
In89        O100   2.250       .  S
In89         O94   2.257       .  S
In89         O96   2.248       .  S
In89         O97   2.263       .  S
In89         O98   2.249       .  S
In89        O101   2.255       .  S
C90          O96   1.259       .  A
C90          O98   1.260       .  A
C90        C1701   1.485       .  S
O91          C99   1.260       .  A
O92          C99   1.262       .  A
C93         O100   1.261       .  A
C93          O94   1.260       .  A
C93        C1677   1.481       .  S
C95          O97   1.262       .  A
C95         O101   1.259       .  A
C95        C1782   1.489       .  S
C99         C112   1.473       .  S
In102       O104   2.256       .  S
In102       O105   2.269       .  S
In102       O113   2.252       .  S
In102       O107   2.252       .  S
In102       O109   2.252       .  S
In102       O110   2.264       .  S
In102       O111   2.247       .  S
In102       O114   2.257       .  S
C103        O109   1.260       .  A
C103        O111   1.260       .  A
C103       C1605   1.485       .  S
O104        C112   1.259       .  A
O105        C112   1.261       .  A
C106        O113   1.262       .  A
C106        O107   1.262       .  A
C106       C1638   1.487       .  S
C108        O110   1.262       .  A
C108        O114   1.259       .  A
C108       C1653   1.486       .  S
C115       C1557   1.577       .  S
C115       C1581   1.579       .  S
C115       C1662   1.581       .  S
C115       C1758   1.586       .  S
In116       O118   2.247       .  S
In116       O119   2.268       .  S
In116       O127   2.246       .  S
In116       O121   2.244       .  S
In116       O123   2.250       .  S
In116       O124   2.252       .  S
In116       O125   2.252       .  S
In116       O128   2.251       .  S
C117        O123   1.259       .  A
C117        O125   1.260       .  A
C117       C1533   1.476       .  S
O118        C126   1.257       .  A
O119        C126   1.260       .  A
C120        O127   1.261       .  A
C120        O121   1.260       .  A
C120       C2061   1.478       .  S
C122        O124   1.263       .  A
C122        O128   1.262       .  A
C122       C1590   1.490       .  S
C129        C130   1.555       .  S
C129        C135   1.537   1_556  S
C129        C133   1.530       .  S
C129       C1470   1.541       .  S
C130        H137   1.082       .  S
C130        C131   1.378   1_556  D
C131        C132   1.539       .  S
C131       C1518   1.501   1_554  S
C132        C136   1.543       .  S
C132        C134   1.543       .  S
C132        H138   1.097       .  S
C133        H139   1.087       .  S
C133        C134   1.353   1_556  D
C134       C1941   1.474       .  S
C135        H140   1.085       .  S
C135        C136   1.371       .  D
C136       C1485   1.512       .  S
C141        C142   1.543       .  S
C141        C147   1.544       .  S
C141        C145   1.549       .  S
C141       C1686   1.549       .  S
C142        H149   1.086   1_556  S
C142        C143   1.369       .  D
C143        C144   1.538       .  S
C143       C1509   1.490       .  S
C144        C148   1.537       .  S
C144        C146   1.532       .  S
C144        H150   1.110       .  S
C145        H151   1.080       .  S
C145        C146   1.363       .  D
C146       C1989   1.486       .  S
C147        H152   1.085       .  S
C147        C148   1.368       .  D
C148       C1437   1.488       .  S
C153        C154   1.538       .  S
C153        C159   1.546       .  S
C153        C157   1.544       .  S
C153       C1614   1.545       .  S
C154        H161   1.087       .  S
C154        C155   1.364       .  D
C155        C156   1.536       .  S
C155       C2118   1.489       .  S
C156        C160   1.535       .  S
C156        C158   1.536       .  S
C156        H162   1.110       .  S
C157        H163   1.085       .  S
C157        C158   1.369       .  D
C158       C1413   1.480       .  S
C159        H164   1.080       .  S
C159        C160   1.363       .  D
C160       C1446   1.481       .  S
C165        C166   1.540       .  S
C165        C171   1.555       .  S
C165        C169   1.547       .  S
C165       C1389   1.550       .  S
C166        H173   1.086       .  S
C166        C167   1.364       .  D
C167        C168   1.534       .  S
C167       C2214   1.484       .  S
C168        C172   1.525       .  S
C168        C170   1.535       .  S
C168        H174   1.111       .  S
C169        H175   1.086       .  S
C169        C170   1.373       .  D
C170       C1422   1.486       .  S
C171        H176   1.080       .  S
C171        C172   1.362       .  D
C172       C1494   1.475       .  S
C177        C178   1.542       .  S
C177        C183   1.546       .  S
C177        C181   1.541       .  S
C177       C1302   1.545       .  S
C178        H185   1.086       .  S
C178        C179   1.366       .  D
C179        C180   1.535       .  S
C179       C1341   1.480       .  S
C180        C184   1.536       .  S
C180        C182   1.539       .  S
C180        H186   1.107       .  S
C181        H187   1.086       .  S
C181        C182   1.371       .  D
C182       C1365   1.500       .  S
C183        H188   1.081       .  S
C183        C184   1.360       .  D
C184       C1326   1.474       .  S
C189        C190   1.542       .  S
C189        C195   1.531       .  S
C189        C193   1.545       .  S
C189       C1230   1.537       .  S
C190        H197   1.081       .  S
C190        C191   1.369       .  D
C191        C192   1.542       .  S
C191       C1350   1.478       .  S
C192        C196   1.540       .  S
C192        C194   1.528       .  S
C192        H198   1.109       .  S
C193        H199   1.086       .  S
C193        C194   1.360       .  D
C194       C1269   1.478       .  S
C195        H200   1.087       .  S
C195        C196   1.365       .  D
C196       C1245   1.490       .  S
C201        C202   1.534       .  S
C201        C207   1.537       .  S
C201        C205   1.560       .  S
C201       C1158   1.542   1_556  S
C202        H209   1.087       .  S
C202        C203   1.356       .  D
C203        C204   1.536       .  S
C203       C1173   1.473       .  S
C204        C208   1.528       .  S
C204        C206   1.544       .  S
C204        H210   1.098       .  S
C205        H211   1.080   1_556  S
C205        C206   1.387       .  D
C206       C1206   1.522       .  S
C207        H212   1.086       .  S
C207        C208   1.358       .  D
C208       C1254   1.480       .  S
C213        C214   1.542       .  S
C213        C219   1.533   1_556  S
C213        C217   1.553       .  S
C213       C1134   1.542       .  S
C214        H221   1.087       .  S
C214        C215   1.359   1_556  D
C215        C216   1.531       .  S
C215       C1101   1.485       .  S
C216        C220   1.533       .  S
C216        C218   1.544       .  S
C216        H222   1.109       .  S
C217        H223   1.081       .  S
C217        C218   1.380   1_556  D
C218       C1197   1.498       .  S
C219        H224   1.086       .  S
C219        C220   1.360       .  D
C220       C1317   1.483       .  S
In225       O227   2.260       .  S
In225       O228   2.262       .  S
In225       O236   2.258       .  S
In225       O230   2.256       .  S
In225       O232   2.247       .  S
In225       O233   2.248       .  S
In225       O234   2.251       .  S
In225       O237   2.265       .  S
C226        O232   1.259       .  A
C226        O234   1.261       .  A
C226       C1053   1.482       .  S
O227        C235   1.259       .  A
O228        C235   1.258       .  A
C229        O236   1.261       .  A
C229        O230   1.258       .  A
C229       C1038   1.489       .  S
C231        O233   1.260       .  A
C231        O237   1.261       .  A
C231       C1077   1.490       .  S
C235        C262   1.470       .  S
C238        C981   1.581       .  S
C238       C1014   1.588       .  S
C238       C1086   1.578       .  S
C238       C1926   1.575       .  S
In239       O241   2.251       .  S
In239       O242   2.262       .  S
In239       O250   2.246       .  S
In239       O244   2.252       .  S
In239       O246   2.252       .  S
In239       O247   2.253       .  S
In239       O248   2.252       .  S
In239       O251   2.258       .  S
C240        O246   1.260       .  A
C240        O248   1.260       .  A
C240       C1125   1.484       .  S
O241        C249   1.258       .  A
O242        C249   1.259       .  A
C243        O250   1.263       .  A
C243        O244   1.260       .  A
C243       C1461   1.492       .  S
C245        O247   1.261       .  A
C245        O251   1.260       .  A
C245        C990   1.485       .  S
C249        C276   1.468       .  S
In252       O254   2.255       .  S
In252       O255   2.263       .  S
In252       O263   2.255       .  S
In252       O257   2.262       .  S
In252       O259   2.257       .  S
In252       O260   2.261       .  S
In252       O261   2.257       .  S
In252       O264   2.260       .  S
C253        O259   1.261       .  A
C253        O261   1.259       .  A
C253        C909   1.489       .  S
O254        C262   1.259       .  A
O255        C262   1.261       .  A
C256        O263   1.259       .  A
C256        O257   1.261       .  A
C256        C942   1.496       .  S
C258        O260   1.262       .  A
C258        O264   1.261       .  A
C258        C957   1.490       .  S
C265        C885   1.601       .  S
C265        C966   1.587       .  S
C265       C1005   1.597       .  S
C265       C1869   1.579       .  S
In266       O268   2.249       .  S
In266       O269   2.264       .  S
In266       O277   2.250       .  S
In266       O271   2.249       .  S
In266       O273   2.262       .  S
In266       O274   2.255       .  S
In266       O275   2.260       .  S
In266       O278   2.251       .  S
C267        O273   1.260       .  A
C267        O275   1.259       .  A
C267       C1398   1.483       .  S
O268        C276   1.258       .  A
O269        C276   1.260       .  A
C270        O277   1.261       .  A
C270        O271   1.262       .  A
C270       C1293   1.483       .  S
C272        O274   1.263       .  A
C272        O278   1.261       .  A
C272        C894   1.492       .  S
C279        C280   1.541       .  S
C279        C285   1.545       .  S
C279        C283   1.536       .  S
C279       C1797   1.543       .  S
C280        H287   1.086       .  S
C280        C281   1.370       .  D
C281        C282   1.542       .  S
C281        C861   1.490       .  S
C282        C286   1.539       .  S
C282        C284   1.538       .  S
C282        H288   1.108       .  S
C283        H289   1.087       .  S
C283        C284   1.361       .  D
C284       C1182   1.490       .  S
C285        H290   1.080       .  S
C285        C286   1.366       .  D
C286        C837   1.486       .  S
C291        C292   1.548       .  S
C291        C297   1.542   1_556  S
C291        C295   1.540       .  S
C291       C1029   1.547       .  S
C292        H299   1.082       .  S
C292        C293   1.368       .  D
C293        C294   1.542   1_556  S
C293        C870   1.483       .  S
C294        C298   1.537       .  S
C294        C296   1.536       .  S
C294        H300   1.109       .  S
C295        H301   1.086       .  S
C295        C296   1.365   1_556  D
C296       C1110   1.488       .  S
C297        H302   1.085       .  S
C297        C298   1.368       .  D
C298        C813   1.496       .  S
C303        C304   1.540       .  S
C303        C309   1.540       .  S
C303        C307   1.556       .  S
C303        C918   1.544       .  S
C304        H311   1.086       .  S
C304        C305   1.364       .  D
C305        C306   1.533       .  S
C305       C1374   1.487       .  S
C306        C310   1.531       .  S
C306        C308   1.534       .  S
C306        H312   1.111       .  S
C307        H313   1.082       .  S
C307        C308   1.374       .  D
C308        C798   1.486       .  S
C309        H314   1.086       .  S
C309        C310   1.362       .  D
C310        C822   1.482       .  S
C315        C316   1.546       .  S
C315        C321   1.540       .  S
C315        C319   1.545       .  S
C315       C1542   1.543       .  S
C316        H323   1.084       .  S
C316        C317   1.361       .  D
C317        C318   1.535       .  S
C317       C1278   1.486       .  S
C318        C322   1.538       .  S
C318        C320   1.537       .  S
C318        H324   1.111       .  S
C319        H325   1.086       .  S
C319        C320   1.371       .  D
C320        C789   1.489       .  S
C321        H326   1.085       .  S
C321        C322   1.362       .  D
C322        C846   1.477       .  S
C327        C328   1.542   1_554  S
C327        C333   1.553       .  S
C327        C331   1.537       .  S
C327       C1902   1.546   1_554  S
C328        H335   1.085       .  S
C328        C329   1.370   1_556  D
C329        C330   1.542       .  S
C329        C750   1.487       .  S
C330        C334   1.534       .  S
C330        C332   1.531       .  S
C330        H336   1.110       .  S
C331        H337   1.087   1_554  S
C331        C332   1.360       .  D
C332        C765   1.477       .  S
C333        H338   1.080       .  S
C333        C334   1.368       .  D
C334        C717   1.492       .  S
C339        C340   1.542       .  S
C339        C345   1.551   1_556  S
C339        C343   1.535       .  S
C339       C1062   1.542       .  S
C340        H347   1.086       .  S
C340        C341   1.364       .  D
C341        C342   1.534   1_556  S
C341        C774   1.486   1_556  S
C342        C346   1.534       .  S
C342        C344   1.542   1_554  S
C342        H348   1.109       .  S
C343        H349   1.086       .  S
C343        C344   1.364       .  D
C344        C702   1.477       .  S
C345        H350   1.078       .  S
C345        C346   1.367       .  D
C346        C669   1.493       .  S
C351        C352   1.555       .  S
C351        C357   1.532       .  S
C351        C355   1.540       .  S
C351        C606   1.543       .  S
C352        H359   1.081   1_556  S
C352        C353   1.372       .  D
C353        C354   1.535       .  S
C353        C741   1.490       .  S
C354        C358   1.538       .  S
C354        C356   1.540       .  S
C354        H360   1.106       .  S
C355        H361   1.086       .  S
C355        C356   1.370       .  D
C356        C645   1.502       .  S
C357        H362   1.087       .  S
C357        C358   1.357       .  D
C358        C621   1.471       .  S
C363        C364   1.538       .  S
C363        C369   1.552       .  S
C363        C367   1.540       .  S
C363       C1710   1.541       .  S
C364        H371   1.086       .  S
C364        C365   1.363       .  D
C365        C366   1.534       .  S
C365        C654   1.480       .  S
C366        C370   1.530       .  S
C366        C368   1.530       .  S
C366        H372   1.110       .  S
C367        H373   1.086   1_556  S
C367        C368   1.365       .  D
C368        C693   1.470       .  S
C369        H374   1.080       .  S
C369        C370   1.368       .  D
C370        C573   1.485       .  S
C375        C376   1.541       .  S
C375        C381   1.553       .  S
C375        C379   1.543       .  S
C375       C1845   1.544       .  S
C376        H383   1.086       .  S
C376        C377   1.365       .  D
C377        C378   1.531       .  S
C377        C549   1.478       .  S
C378        C382   1.529       .  S
C378        C380   1.531       .  S
C378        H384   1.111       .  S
C379        H385   1.086       .  S
C379        C380   1.367       .  D
C380        C534   1.476       .  S
C381        H386   1.080       .  S
C381        C382   1.365       .  D
C382        C726   1.482       .  S
C387        C388   1.547       .  S
C387        C393   1.549       .  S
C387        C391   1.539       .  S
C387        C933   1.550       .  S
C388        H395   1.085       .  S
C388        C389   1.371       .  D
C389        C390   1.537       .  S
C389        C501   1.491       .  S
C390        C394   1.533       .  S
C390        C392   1.536       .  S
C390        H396   1.106       .  S
C391        H397   1.086       .  S
C391        C392   1.369       .  D
C392        C558   1.499       .  S
C393        H398   1.080       .  S
C393        C394   1.361       .  D
C394        C678   1.476       .  S
C399        C400   1.547       .  S
C399        C405   1.545       .  S
C399        C403   1.533       .  S
C399        C462   1.541       .  S
C400        H407   1.084       .  S
C400        C401   1.364       .  D
C401        C402   1.535       .  S
C401        C477   1.488       .  S
C402        C406   1.536       .  S
C402        C404   1.540       .  S
C402        H408   1.110       .  S
C403        H409   1.086       .  S
C403        C404   1.366       .  D
C404        C525   1.480       .  S
C405        H410   1.080       .  S
C405        C406   1.366       .  D
C406        C630   1.491       .  S
C411        C412   1.543       .  S
C411        C417   1.550       .  S
C411        C415   1.542       .  S
C411       C1629   1.548       .  S
C412        H419   1.086       .  S
C412        C413   1.370       .  D
C413        C414   1.537       .  S
C413        C510   1.483       .  S
C414        C418   1.536       .  S
C414        C416   1.532       .  S
C414        H420   1.109       .  S
C415        H421   1.086       .  S
C415        C416   1.363       .  D
C416        C486   1.490       .  S
C417        H422   1.078       .  S
C417        C418   1.366       .  D
C418        C582   1.489       .  S
In423       O425   2.255       .  S
In423       O426   2.257       .  S
In423       O434   2.243       .  S
In423       O428   2.247       .  S
In423       O430   2.247       .  S
In423       O431   2.253       .  S
In423       O432   2.246       .  S
In423       O435   2.259       .  S
C424        O430   1.260       .  A
C424        O432   1.261       .  A
C424        C453   1.481       .  S
O425        C433   1.259       .  A
O426        C433   1.260       .  A
C427        O434   1.259       .  A
C427        O428   1.260       .  A
C427       C1221   1.478       .  S
C429        O431   1.262       .  A
C429        O435   1.259       .  A
C429       C1566   1.493       .  S
C433        C446   1.469       .  S
In436       O438   2.256       .  S
In436       O439   2.255       .  S
In436       O447   2.254       .  S
In436       O441   2.255       .  S
In436       O443   2.250       .  S
In436       O444   2.260       .  S
In436       O445   2.252       .  S
In436       O448   2.246       .  S
C437        O443   1.261       .  A
C437        O445   1.261       .  A
C437       C1149   1.486       .  S
O438        C446   1.260       .  A
O439        C446   1.260       .  A
C440        O447   1.260       .  A
C440        O441   1.260       .  A
C440        C597   1.486       .  S
C442        O444   1.262       .  A
C442        O448   1.259       .  A
C442       C1734   1.487       .  S
C449        C450   1.404       .  A
C449        C454   1.398       .  A
C449        H459   1.084       .  S
C450        C455   1.486       .  S
C450        C451   1.413       .  A
C451        C452   1.402       .  A
C451        S456   1.803       .  S
C452        C453   1.406       .  A
C452        H457   1.084       .  S
C453        C454   1.414       .  A
C454        S458   1.803       .  S
C455        C460   1.408       .  A
C455        C464   1.402       .  A
S456        H472   1.406       .  S
S458        H469   1.405       .  S
C460        C461   1.403       .  A
C460        S465   1.807       .  S
C461        C462   1.411       .  A
C461        H466   1.081       .  S
C462        C463   1.422       .  A
C463        C464   1.400       .  A
C463        S467   1.805       .  S
C464        H468   1.084       .  S
S465        H470   1.407       .  S
S467        H471   1.405       .  S
C473        C474   1.399       .  A
C473        C478   1.400       .  A
C473        H483   1.083       .  S
C474        C479   1.477       .  S
C474        C475   1.410       .  A
C475        C476   1.401       .  A
C475        S480   1.804       .  S
C476        C477   1.405       .  A
C476        H481   1.084       .  S
C477        C478   1.417       .  A
C478        S482   1.808       .  S
C479        C484   1.407       .  A
C479        C488   1.399       .  A
S480        H496   1.405       .  S
S482        H493   1.406       .  S
C484        C485   1.401       .  A
C484        S489   1.806       .  S
C485        C486   1.407       .  A
C485        H490   1.083       .  S
C486        C487   1.417       .  A
C487        C488   1.399       .  A
C487        S491   1.797       .  S
C488        H492   1.084       .  S
S489        H494   1.407       .  S
S491        H495   1.402       .  S
C497        C498   1.406       .  A
C497        C502   1.406       .  A
C497        H507   1.084       .  S
C498        C503   1.489       .  S
C498        C499   1.412       .  A
C499        C500   1.397       .  A
C499        S504   1.805       .  S
C500        C501   1.405       .  A
C500        H505   1.084       .  S
C501        C502   1.417       .  A
C502        S506   1.803       .  S
C503        C508   1.411       .  A
C503        C512   1.406       .  A
S504        H520   1.406       .  S
S506        H517   1.403       .  S
C508        C509   1.405       .  A
C508        S513   1.807       .  S
C509        C510   1.404       .  A
C509        H514   1.080       .  S
C510        C511   1.411       .  A
C511        C512   1.401       .  A
C511        S515   1.803       .  S
C512        H516   1.084       .  S
S513        H518   1.407       .  S
S515        H519   1.404       .  S
C521        C522   1.405       .  A
C521        C526   1.400       .  A
C521        H531   1.084       .  S
C522        C527   1.486       .  S
C522        C523   1.413       .  A
C523        C524   1.402       .  A
C523        S528   1.803       .  S
C524        C525   1.403       .  A
C524        H529   1.081       .  S
C525        C526   1.411       .  A
C526        S530   1.804       .  S
C527        C532   1.412       .  A
C527        C536   1.405       .  A
S528        H544   1.406       .  S
S530        H541   1.403       .  S
C532        C533   1.403       .  A
C532        S537   1.807       .  S
C533        C534   1.401       .  A
C533        H538   1.082       .  S
C534        C535   1.408       .  A
C535        C536   1.405       .  A
C535        S539   1.806       .  S
C536        H540   1.083       .  S
S537        H542   1.407       .  S
S539        H543   1.407       .  S
C545        C546   1.401       .  A
C545        C550   1.396       .  A
C545        H555   1.084       .  S
C546        C551   1.473       .  S
C546        C547   1.410       .  A
C547        C548   1.399       .  A
C547        S552   1.804       .  S
C548        C549   1.404       .  A
C548        H553   1.083       .  S
C549        C550   1.413       .  A
C550        S554   1.804       .  S
C551        C556   1.402       .  A
C551        C560   1.397       .  A
S552        H568   1.404       .  S
S554        H565   1.406       .  S
C556        C557   1.399       .  A
C556        S561   1.806       .  S
C557        C558   1.410       .  A
C557        H562   1.082       .  S
C558        C559   1.422       .  A
C559        C560   1.403       .  A
C559        S563   1.803       .  S
C560        H564   1.083       .  S
S561        H566   1.407       .  S
S563        H567   1.406       .  S
C569        C570   1.400       .  A
C569        C574   1.402       .  A
C569        H579   1.083       .  S
C570        C575   1.472       .  S
C570        C571   1.407       .  A
C571        C572   1.394       .  A
C571        S576   1.803       .  S
C572        C573   1.406       .  A
C572        H577   1.084       .  S
C573        C574   1.416       .  A
C574        S578   1.806       .  S
C575        C580   1.404       .  A
C575        C584   1.397       .  A
S576        H592   1.406       .  S
S578        H589   1.406       .  S
C580        C581   1.401       .  A
C580        S585   1.806       .  S
C581        C582   1.408       .  A
C581        H586   1.078       .  S
C582        C583   1.421       .  A
C583        C584   1.395       .  A
C583        S587   1.806       .  S
C584        H588   1.084       .  S
S585        H590   1.407       .  S
S587        H591   1.405       .  S
C593        C594   1.402       .  A
C593        C598   1.402       .  A
C593        H603   1.084       .  S
C594        C599   1.483       .  S
C594        C595   1.411       .  A
C595        C596   1.401       .  A
C595        S600   1.804       .  S
C596        C597   1.406       .  A
C596        H601   1.084       .  S
C597        C598   1.417       .  A
C598        S602   1.802       .  S
C599        C604   1.405       .  A
C599        C608   1.396       .  A
S600        H616   1.404       .  S
S602        H613   1.408       .  S
C604        C605   1.407       .  A
C604        S609   1.806       .  S
C605        C606   1.414   1_554  A
C605        H610   1.075       .  S
C606        C607   1.429       .  A
C607        C608   1.402   1_556  A
C607        S611   1.814       .  S
C608        H612   1.083       .  S
S609        H614   1.406       .  S
S611        H615   1.407       .  S
C617        C618   1.404       .  A
C617        C622   1.400       .  A
C617        H627   1.084       .  S
C618        C623   1.481       .  S
C618        C619   1.413       .  A
C619        C620   1.395       .  A
C619        S624   1.805       .  S
C620        C621   1.399       .  A
C620        H625   1.084       .  S
C621        C622   1.411       .  A
C622        S626   1.805       .  S
C623        C628   1.409       .  A
C623        C632   1.400       .  A
S624        H640   1.406       .  S
S626        H637   1.403       .  S
C628        C629   1.402       .  A
C628        S633   1.808       .  S
C629        C630   1.406       .  A
C629        H634   1.078       .  S
C630        C631   1.419       .  A
C631        C632   1.396       .  A
C631        S635   1.803       .  S
C632        H636   1.084       .  S
S633        H638   1.407       .  S
S635        H639   1.402       .  S
C641        C642   1.397       .  A
C641        C646   1.403       .  A
C641        H651   1.083       .  S
C642        C647   1.476       .  S
C642        C643   1.407       .  A
C643        C644   1.398       .  A
C643        S648   1.804   1_556  S
C644        C645   1.410       .  A
C644        H649   1.083   1_556  S
C645        C646   1.422       .  A
C646        S650   1.803       .  S
C647        C652   1.408       .  A
C647        C656   1.399       .  A
S648        H664   1.404       .  S
S650        H661   1.406       .  S
C652        C653   1.404       .  A
C652        S657   1.805       .  S
C653        C654   1.405       .  A
C653        H658   1.083       .  S
C654        C655   1.415       .  A
C655        C656   1.395       .  A
C655        S659   1.805       .  S
C656        H660   1.084       .  S
S657        H662   1.407       .  S
S659        H663   1.406       .  S
C665        C666   1.402       .  A
C665        C670   1.395       .  A
C665        H675   1.084       .  S
C666        C671   1.486       .  S
C666        C667   1.414       .  A
C667        C668   1.400       .  A
C667        S672   1.804       .  S
C668        C669   1.405       .  A
C668        H673   1.081       .  S
C669        C670   1.418       .  A
C670        S674   1.805       .  S
C671        C676   1.413       .  A
C671        C680   1.406       .  A
S672        H688   1.406       .  S
S674        H685   1.407       .  S
C676        C677   1.400       .  A
C676        S681   1.809       .  S
C677        C678   1.400       .  A
C677        H682   1.083       .  S
C678        C679   1.408       .  A
C679        C680   1.400       .  A
C679        S683   1.799       .  S
C680        H684   1.084       .  S
S681        H686   1.407       .  S
S683        H687   1.405       .  S
C689        C690   1.402       .  A
C689        C694   1.399       .  A
C689        H699   1.084       .  S
C690        C695   1.477       .  S
C690        C691   1.413   1_556  A
C691        C692   1.398       .  A
C691        S696   1.804       .  S
C692        C693   1.400   1_554  A
C692        H697   1.084       .  S
C693        C694   1.412       .  A
C694        S698   1.803       .  S
C695        C700   1.410       .  A
C695        C704   1.400   1_556  A
S696        H712   1.406       .  S
S698        H709   1.404       .  S
C700        C701   1.403       .  A
C700        S705   1.807       .  S
C701        C702   1.402       .  A
C701        H706   1.082       .  S
C702        C703   1.411   1_556  A
C703        C704   1.398       .  A
C703        S707   1.801       .  S
C704        H708   1.084       .  S
S705        H710   1.407       .  S
S707        H711   1.405       .  S
C713        C714   1.401       .  A
C713        C718   1.401       .  A
C713        H723   1.084       .  S
C714        C719   1.478       .  S
C714        C715   1.411       .  A
C715        C716   1.399       .  A
C715        S720   1.807       .  S
C716        C717   1.407       .  A
C716        H721   1.084       .  S
C717        C718   1.416       .  A
C718        S722   1.799       .  S
C719        C724   1.408       .  A
C719        C728   1.401       .  A
S720        H736   1.403       .  S
S722        H733   1.400       .  S
C724        C725   1.404       .  A
C724        S729   1.806       .  S
C725        C726   1.405       .  A
C725        H730   1.083       .  S
C726        C727   1.414       .  A
C727        C728   1.398       .  A
C727        S731   1.804       .  S
C728        H732   1.084       .  S
S729        H734   1.407       .  S
S731        H735   1.405       .  S
C737        C738   1.404   1_554  A
C737        C742   1.405       .  A
C737        H747   1.083       .  S
C738        C743   1.481       .  S
C738        C739   1.412       .  A
C739        C740   1.400       .  A
C739        S744   1.809       .  S
C740        C741   1.405       .  A
C740        H745   1.081       .  S
C741        C742   1.414   1_556  A
C742        S746   1.807       .  S
C743        C748   1.407       .  A
C743        C752   1.402   1_556  A
S744        H760   1.401       .  S
S746        H757   1.407       .  S
C748        C749   1.400   1_556  A
C748        S753   1.807       .  S
C749        C750   1.405       .  A
C749        H754   1.083       .  S
C750        C751   1.419       .  A
C751        C752   1.404       .  A
C751        S755   1.806       .  S
C752        H756   1.084       .  S
S753        H758   1.407       .  S
S755        H759   1.402       .  S
C761        C762   1.400   1_556  A
C761        C766   1.396       .  A
C761        H771   1.084       .  S
C762        C767   1.477       .  S
C762        C763   1.413       .  A
C763        C764   1.401       .  A
C763        S768   1.804       .  S
C764        C765   1.403       .  A
C764        H769   1.084       .  S
C765        C766   1.413   1_554  A
C766        S770   1.802       .  S
C767        C772   1.409       .  A
C767        C776   1.400       .  A
S768        H784   1.405       .  S
S770        H781   1.405       .  S
C772        C773   1.402       .  A
C772        S777   1.807       .  S
C773        C774   1.406       .  A
C773        H778   1.082       .  S
C774        C775   1.413   1_554  A
C775        C776   1.397   1_556  A
C775        S779   1.796       .  S
C776        H780   1.084   1_554  S
S777        H782   1.407       .  S
S779        H783   1.405       .  S
C785        C786   1.400       .  A
C785        C790   1.401       .  A
C785        H795   1.083       .  S
C786        C791   1.482   1_455  S
C786        C787   1.412       .  A
C787        C788   1.404       .  A
C787        S792   1.804       .  S
C788        C789   1.406       .  A
C788        H793   1.083       .  S
C789        C790   1.414       .  A
C790        S794   1.804       .  S
C791        C796   1.408       .  A
C791        C800   1.403       .  A
S792        H808   1.405       .  S
S794        H805   1.406       .  S
C796        C797   1.403       .  A
C796        S801   1.806       .  S
C797        C798   1.406       .  A
C797        H802   1.083       .  S
C798        C799   1.414       .  A
C799        C800   1.401       .  A
C799        S803   1.802       .  S
C800        H804   1.084       .  S
S801        H806   1.407       .  S
S803        H807   1.407       .  S
C809        C810   1.397       .  A
C809        C814   1.394       .  A
C809        H819   1.085       .  S
C810        C815   1.477       .  S
C810        C811   1.411       .  A
C811        C812   1.402       .  A
C811        S816   1.805       .  S
C812        C813   1.407       .  A
C812        H817   1.079       .  S
C813        C814   1.418       .  A
C814        S818   1.795       .  S
C815        C820   1.407       .  A
C815        C824   1.401       .  A
S816        H832   1.404       .  S
S818        H829   1.405       .  S
C820        C821   1.403       .  A
C820        S825   1.805       .  S
C821        C822   1.405       .  A
C821        H826   1.083       .  S
C822        C823   1.412       .  A
C823        C824   1.400       .  A
C823        S827   1.805       .  S
C824        H828   1.083       .  S
S825        H830   1.407       .  S
S827        H831   1.406       .  S
C833        C834   1.403       .  A
C833        C838   1.402       .  A
C833        H843   1.084       .  S
C834        C839   1.477       .  S
C834        C835   1.410       .  A
C835        C836   1.394       .  A
C835        S840   1.805       .  S
C836        C837   1.406       .  A
C836        H841   1.084       .  S
C837        C838   1.414       .  A
C838        S842   1.801       .  S
C839        C844   1.408       .  A
C839        C848   1.402       .  A
S840        H856   1.405       .  S
S842        H853   1.406       .  S
C844        C845   1.399       .  A
C844        S849   1.807       .  S
C845        C846   1.400       .  A
C845        H850   1.078       .  S
C846        C847   1.413       .  A
C847        C848   1.401       .  A
C847        S851   1.803       .  S
C848        H852   1.084       .  S
S849        H854   1.407       .  S
S851        H855   1.402       .  S
C857        C858   1.404       .  A
C857        C862   1.399       .  A
C857        H867   1.084       .  S
C858        C863   1.489   1_455  S
C858        C859   1.414       .  A
C859        C860   1.403       .  A
C859        S864   1.803       .  S
C860        C861   1.405       .  A
C860        H865   1.084       .  S
C861        C862   1.414       .  A
C862        S866   1.800       .  S
C863        C868   1.412       .  A
C863        C872   1.404   1_556  A
S864        H880   1.406   1_455  S
S866        H877   1.406       .  S
C868        C869   1.404       .  A
C868        S873   1.807       .  S
C869        C870   1.403       .  A
C869        H874   1.083       .  S
C870        C871   1.411   1_556  A
C871        C872   1.402       .  A
C871        S875   1.801       .  S
C872        H876   1.084       .  S
S873        H878   1.407       .  S
S875        H879   1.406       .  S
C881        C882   1.394       .  A
C881        C886   1.408       .  A
C881        H891   1.083       .  S
C882        C887   1.485       .  S
C882        C883   1.399       .  A
C883        C884   1.401       .  A
C883        S888   1.808       .  S
C884        C885   1.427       .  A
C884        H889   1.072       .  S
C885        C886   1.441       .  A
C886        S890   1.808       .  S
C887        C892   1.408       .  A
C887        C896   1.400       .  A
S888        H904   1.407       .  S
S890        H901   1.406       .  S
C892        C893   1.405       .  A
C892        S897   1.807       .  S
C893        C894   1.408       .  A
C893        H898   1.082       .  S
C894        C895   1.419       .  A
C895        C896   1.403       .  A
C895        S899   1.799       .  S
C896        H900   1.084       .  S
S897        H902   1.407       .  S
S899        H903   1.407       .  S
C905        C906   1.402       .  A
C905        C910   1.403       .  A
C905        H915   1.084       .  S
C906        C911   1.486       .  S
C906        C907   1.412       .  A
C907        C908   1.400       .  A
C907        S912   1.804       .  S
C908        C909   1.405       .  A
C908        H913   1.084       .  S
C909        C910   1.418       .  A
C910        S914   1.802       .  S
C911        C916   1.407       .  A
C911        C920   1.395       .  A
S912        H928   1.406       .  S
S914        H925   1.408       .  S
C916        C917   1.411       .  A
C916        S921   1.806       .  S
C917        C918   1.415       .  A
C917        H922   1.075       .  S
C918        C919   1.427       .  A
C919        C920   1.398       .  A
C919        S923   1.810       .  S
C920        H924   1.083       .  S
S921        H926   1.407       .  S
S923        H927   1.407       .  S
C929        C930   1.401       .  A
C929        C934   1.409       .  A
C929        H939   1.083       .  S
C930        C935   1.489       .  S
C930        C931   1.409       .  A
C931        C932   1.400       .  A
C931        S936   1.806       .  S
C932        C933   1.415       .  A
C932        H937   1.073       .  S
C933        C934   1.427       .  A
C934        S938   1.811       .  S
C935        C940   1.410       .  A
C935        C944   1.401       .  A
S936        H952   1.406       .  S
S938        H949   1.406       .  S
C940        C941   1.407       .  A
C940        S945   1.806       .  S
C941        C942   1.410       .  A
C941        H946   1.082       .  S
C942        C943   1.420       .  A
C943        C944   1.402       .  A
C943        S947   1.801       .  S
C944        H948   1.084       .  S
S945        H950   1.407       .  S
S947        H951   1.408       .  S
C953        C954   1.403       .  A
C953        C958   1.402       .  A
C953        H963   1.084       .  S
C954        C959   1.487       .  S
C954        C955   1.414       .  A
C955        C956   1.405       .  A
C955        S960   1.807       .  S
C956        C957   1.407       .  A
C956        H961   1.084       .  S
C957        C958   1.416       .  A
C958        S962   1.802       .  S
C959        C964   1.403       .  A
C959        C968   1.391       .  A
S960        H976   1.401       .  S
S962        H973   1.407       .  S
C964        C965   1.408       .  A
C964        S969   1.804       .  S
C965        C966   1.424       .  A
C965        H970   1.082       .  S
C966        C967   1.447       .  A
C967        C968   1.400       .  A
C967        S971   1.810       .  S
C968        H972   1.085       .  S
S969        H974   1.407       .  S
S971        H975   1.393       .  S
C977        C978   1.396       .  A
C977        C982   1.403       .  A
C977        H987   1.084   1_554  S
C978        C983   1.490   1_554  S
C978        C979   1.407       .  A
C979        C980   1.403       .  A
C979        S984   1.803       .  S
C980        C981   1.419       .  A
C980        H985   1.074       .  S
C981        C982   1.446       .  A
C982        S986   1.816       .  S
C983        C988   1.412       .  A
C983        C992   1.404       .  A
S984       H1000   1.406       .  S
S986        H997   1.391       .  S
C988        C989   1.406       .  A
C988        S993   1.807   1_556  S
C989        C990   1.406       .  A
C989        H994   1.083       .  S
C990        C991   1.415       .  A
C991        C992   1.401       .  A
C991        S995   1.802       .  S
C992        H996   1.084       .  S
S993        H998   1.407       .  S
S995        H999   1.408       .  S
C1001      C1002   1.397       .  A
C1001      C1006   1.414       .  A
C1001      H1011   1.082       .  S
C1002      C1007   1.500       .  S
C1002      C1003   1.406       .  A
C1003      C1004   1.404       .  A
C1003      S1008   1.806       .  S
C1004      C1005   1.426       .  A
C1004      H1009   1.075       .  S
C1005      C1006   1.441       .  A
C1006      S1010   1.805       .  S
C1007      C1012   1.404       .  A
C1007      C1016   1.398       .  A
S1008      H1024   1.405       .  S
S1010      H1021   1.406       .  S
C1012      C1013   1.408       .  A
C1012      S1017   1.807       .  S
C1013      C1014   1.421       .  A
C1013      H1018   1.069       .  S
C1014      C1015   1.448       .  A
C1015      C1016   1.410       .  A
C1015      S1019   1.813       .  S
C1016      H1020   1.085       .  S
S1017      H1022   1.407       .  S
S1019      H1023   1.395       .  S
C1025      C1026   1.394       .  A
C1025      C1030   1.399       .  A
C1025      H1035   1.083       .  S
C1026      C1031   1.482       .  S
C1026      C1027   1.408       .  A
C1027      C1028   1.406       .  A
C1027      S1032   1.804       .  S
C1028      C1029   1.416       .  A
C1028      H1033   1.077       .  S
C1029      C1030   1.428       .  A
C1030      S1034   1.808   1_556  S
C1031      C1036   1.408       .  A
C1031      C1040   1.401       .  A
S1032      H1048   1.405       .  S
S1034      H1045   1.406       .  S
C1036      C1037   1.404       .  A
C1036      S1041   1.806       .  S
C1037      C1038   1.407       .  A
C1037      H1042   1.083       .  S
C1038      C1039   1.419       .  A
C1039      C1040   1.402       .  A
C1039      S1043   1.801       .  S
C1040      H1044   1.084       .  S
S1041      H1046   1.407       .  S
S1043      H1047   1.408       .  S
C1049      C1050   1.401       .  A
C1049      C1054   1.400       .  A
C1049      H1059   1.084       .  S
C1050      C1055   1.479       .  S
C1050      C1051   1.412       .  A
C1051      C1052   1.399       .  A
C1051      S1056   1.806       .  S
C1052      C1053   1.405       .  A
C1052      H1057   1.084       .  S
C1053      C1054   1.416       .  A
C1054      S1058   1.802       .  S
C1055      C1060   1.404       .  A
C1055      C1064   1.398       .  A
S1056      H1072   1.405       .  S
S1058      H1069   1.407       .  S
C1060      C1061   1.400       .  A
C1060      S1065   1.809       .  S
C1061      C1062   1.414       .  A
C1061      H1066   1.073   1_556  S
C1062      C1063   1.425       .  A
C1063      C1064   1.405       .  A
C1063      S1067   1.810       .  S
C1064      H1068   1.083       .  S
S1065      H1070   1.407   1_556  S
S1067      H1071   1.407       .  S
C1073      C1074   1.402       .  A
C1073      C1078   1.400       .  A
C1073      H1083   1.084       .  S
C1074      C1079   1.486       .  S
C1074      C1075   1.413       .  A
C1075      C1076   1.404       .  A
C1075      S1080   1.805   1_556  S
C1076      C1077   1.407       .  A
C1076      H1081   1.084       .  S
C1077      C1078   1.417       .  A
C1078      S1082   1.802       .  S
C1079      C1084   1.401   1_556  A
C1079      C1088   1.395       .  A
S1080      H1096   1.405       .  S
S1082      H1093   1.408       .  S
C1084      C1085   1.403       .  A
C1084      S1089   1.806       .  S
C1085      C1086   1.422       .  A
C1085      H1090   1.078       .  S
C1086      C1087   1.442   1_554  A
C1087      C1088   1.406       .  A
C1087      S1091   1.809       .  S
C1088      H1092   1.083       .  S
S1089      H1094   1.407       .  S
S1091      H1095   1.407       .  S
C1097      C1098   1.403       .  A
C1097      C1102   1.401       .  A
C1097      H1107   1.084       .  S
C1098      C1103   1.477       .  S
C1098      C1099   1.410   1_554  A
C1099      C1100   1.395       .  A
C1099      S1104   1.805       .  S
C1100      C1101   1.405   1_556  A
C1100      H1105   1.084       .  S
C1101      C1102   1.414       .  A
C1102      S1106   1.798       .  S
C1103      C1108   1.407       .  A
C1103      C1112   1.401       .  A
S1104      H1120   1.405       .  S
S1106      H1117   1.404       .  S
C1108      C1109   1.399       .  A
C1108      S1113   1.808       .  S
C1109      C1110   1.406       .  A
C1109      H1114   1.081       .  S
C1110      C1111   1.413       .  A
C1111      C1112   1.405       .  A
C1111      S1115   1.803   1_554  S
C1112      H1116   1.083       .  S
S1113      H1118   1.407       .  S
S1115      H1119   1.407       .  S
C1121      C1122   1.401       .  A
C1121      C1126   1.400       .  A
C1121      H1131   1.084       .  S
C1122      C1127   1.482       .  S
C1122      C1123   1.412       .  A
C1123      C1124   1.401       .  A
C1123      S1128   1.804       .  S
C1124      C1125   1.406       .  A
C1124      H1129   1.084       .  S
C1125      C1126   1.417       .  A
C1126      S1130   1.802       .  S
C1127      C1132   1.403       .  A
C1127      C1136   1.403       .  A
S1128      H1144   1.406       .  S
S1130      H1141   1.408       .  S
C1132      C1133   1.394       .  A
C1132      S1137   1.810       .  S
C1133      C1134   1.416       .  A
C1133      H1138   1.081       .  S
C1134      C1135   1.424       .  A
C1135      C1136   1.409       .  A
C1135      S1139   1.798       .  S
C1136      H1140   1.084       .  S
S1137      H1142   1.407       .  S
S1139      H1143   1.407       .  S
C1145      C1146   1.403       .  A
C1145      C1150   1.403       .  A
C1145      H1155   1.084       .  S
C1146      C1151   1.484       .  S
C1146      C1147   1.412       .  A
C1147      C1148   1.399       .  A
C1147      S1152   1.804       .  S
C1148      C1149   1.405       .  A
C1148      H1153   1.084       .  S
C1149      C1150   1.417       .  A
C1150      S1154   1.802       .  S
C1151      C1156   1.407       .  A
C1151      C1160   1.394       .  A
S1152      H1168   1.406       .  S
S1154      H1165   1.408       .  S
C1156      C1157   1.410       .  A
C1156      S1161   1.805       .  S
C1157      C1158   1.414       .  A
C1157      H1162   1.076       .  S
C1158      C1159   1.429   1_554  A
C1159      C1160   1.398   1_556  A
C1159      S1163   1.813       .  S
C1160      H1164   1.083       .  S
S1161      H1166   1.406       .  S
S1163      H1167   1.407       .  S
C1169      C1170   1.403       .  A
C1169      C1174   1.400       .  A
C1169      H1179   1.084       .  S
C1170      C1175   1.478       .  S
C1170      C1171   1.412       .  A
C1171      C1172   1.396       .  A
C1171      S1176   1.805       .  S
C1172      C1173   1.400       .  A
C1172      H1177   1.083       .  S
C1173      C1174   1.413       .  A
C1174      S1178   1.806       .  S
C1175      C1180   1.408       .  A
C1175      C1184   1.401       .  A
S1176      H1192   1.406       .  S
S1178      H1189   1.399       .  S
C1180      C1181   1.398       .  A
C1180      S1185   1.808   1_556  S
C1181      C1182   1.407       .  A
C1181      H1186   1.082       .  S
C1182      C1183   1.415       .  A
C1183      C1184   1.404       .  A
C1183      S1187   1.805       .  S
C1184      H1188   1.083       .  S
S1185      H1190   1.407       .  S
S1187      H1191   1.406       .  S
C1193      C1194   1.406       .  A
C1193      C1198   1.408       .  A
C1193      H1203   1.083       .  S
C1194      C1199   1.494   1_655  S
C1194      C1195   1.414   1_556  A
C1195      C1196   1.394       .  A
C1195      S1200   1.806       .  S
C1196      C1197   1.405       .  A
C1196      H1201   1.082       .  S
C1197      C1198   1.419   1_554  A
C1198      S1202   1.801       .  S
C1199      C1204   1.409   1_556  A
C1199      C1208   1.395       .  A
S1200      H1216   1.407   1_655  S
S1202      H1213   1.407   1_556  S
C1204      C1205   1.410   1_554  A
C1204      S1209   1.807       .  S
C1205      C1206   1.417       .  A
C1205      H1210   1.079   1_556  S
C1206      C1207   1.432       .  A
C1207      C1208   1.399       .  A
C1207      S1211   1.807       .  S
C1208      H1212   1.083       .  S
S1209      H1214   1.407       .  S
S1211      H1215   1.406       .  S
C1217      C1218   1.400       .  A
C1217      C1222   1.399       .  A
C1217      H1227   1.084       .  S
C1218      C1223   1.475       .  S
C1218      C1219   1.411       .  A
C1219      C1220   1.398       .  A
C1219      S1224   1.805       .  S
C1220      C1221   1.405       .  A
C1220      H1225   1.084       .  S
C1221      C1222   1.415       .  A
C1222      S1226   1.803       .  S
C1223      C1228   1.402       .  A
C1223      C1232   1.400       .  A
S1224      H1240   1.404       .  S
S1226      H1237   1.407       .  S
C1228      C1229   1.394       .  A
C1228      S1233   1.809       .  S
C1229      C1230   1.415       .  A
C1229      H1234   1.081       .  S
C1230      C1231   1.424       .  A
C1231      C1232   1.404       .  A
C1231      S1235   1.799       .  S
C1232      H1236   1.084       .  S
S1233      H1238   1.407       .  S
S1235      H1239   1.407       .  S
C1241      C1242   1.401       .  A
C1241      C1246   1.404       .  A
C1241      H1251   1.083       .  S
C1242      C1247   1.473       .  S
C1242      C1243   1.407       .  A
C1243      C1244   1.394       .  A
C1243      S1248   1.805       .  S
C1244      C1245   1.409       .  A
C1244      H1249   1.083       .  S
C1245      C1246   1.414       .  A
C1246      S1250   1.803       .  S
C1247      C1252   1.407       .  A
C1247      C1256   1.401       .  A
S1248      H1264   1.405       .  S
S1250      H1261   1.406       .  S
C1252      C1253   1.398       .  A
C1252      S1257   1.807       .  S
C1253      C1254   1.404       .  A
C1253      H1258   1.082       .  S
C1254      C1255   1.414       .  A
C1255      C1256   1.399       .  A
C1255      S1259   1.803       .  S
C1256      H1260   1.084       .  S
S1257      H1262   1.407       .  S
S1259      H1263   1.407       .  S
C1265      C1266   1.400       .  A
C1265      C1270   1.400       .  A
C1265      H1275   1.083       .  S
C1266      C1271   1.473       .  S
C1266      C1267   1.411       .  A
C1267      C1268   1.398       .  A
C1267      S1272   1.804       .  S
C1268      C1269   1.401       .  A
C1268      H1273   1.083       .  S
C1269      C1270   1.412       .  A
C1270      S1274   1.808       .  S
C1271      C1276   1.406       .  A
C1271      C1280   1.399       .  A
S1272      H1288   1.405       .  S
S1274      H1285   1.407       .  S
C1276      C1277   1.402       .  A
C1276      S1281   1.806       .  S
C1277      C1278   1.405       .  A
C1277      H1282   1.076       .  S
C1278      C1279   1.418       .  A
C1279      C1280   1.396       .  A
C1279      S1283   1.806       .  S
C1280      H1284   1.084       .  S
S1281      H1286   1.407       .  S
S1283      H1287   1.405       .  S
C1289      C1290   1.402       .  A
C1289      C1294   1.401       .  A
C1289      H1299   1.084       .  S
C1290      C1295   1.484       .  S
C1290      C1291   1.412       .  A
C1291      C1292   1.401       .  A
C1291      S1296   1.804       .  S
C1292      C1293   1.405       .  A
C1292      H1297   1.084       .  S
C1293      C1294   1.416       .  A
C1294      S1298   1.802       .  S
C1295      C1300   1.406       .  A
C1295      C1304   1.400       .  A
S1296      H1312   1.406       .  S
S1298      H1309   1.407       .  S
C1300      C1301   1.400       .  A
C1300      S1305   1.810       .  S
C1301      C1302   1.413       .  A
C1301      H1306   1.072       .  S
C1302      C1303   1.425       .  A
C1303      C1304   1.407       .  A
C1303      S1307   1.811       .  S
C1304      H1308   1.082       .  S
S1305      H1310   1.406       .  S
S1307      H1311   1.406       .  S
C1313      C1314   1.403       .  A
C1313      C1318   1.400       .  A
C1313      H1323   1.083       .  S
C1314      C1319   1.483       .  S
C1314      C1315   1.413       .  A
C1315      C1316   1.397       .  A
C1315      S1320   1.803       .  S
C1316      C1317   1.403       .  A
C1316      H1321   1.084       .  S
C1317      C1318   1.415       .  A
C1318      S1322   1.810       .  S
C1319      C1324   1.413       .  A
C1319      C1328   1.404       .  A
S1320      H1336   1.406       .  S
S1322      H1333   1.407       .  S
C1324      C1325   1.399       .  A
C1324      S1329   1.809       .  S
C1325      C1326   1.399       .  A
C1325      H1330   1.083       .  S
C1326      C1327   1.409       .  A
C1327      C1328   1.399       .  A
C1327      S1331   1.800       .  S
C1328      H1332   1.084       .  S
S1329      H1334   1.407       .  S
S1331      H1335   1.404       .  S
C1337      C1338   1.407       .  A
C1337      C1342   1.407       .  A
C1337      H1347   1.082       .  S
C1338      C1343   1.488   1_655  S
C1338      C1339   1.414       .  A
C1339      C1340   1.395       .  A
C1339      S1344   1.805       .  S
C1340      C1341   1.400       .  A
C1340      H1345   1.084       .  S
C1341      C1342   1.410       .  A
C1342      S1346   1.804       .  S
C1343      C1348   1.412       .  A
C1343      C1352   1.405       .  A
S1344      H1360   1.407   1_655  S
S1346      H1357   1.407       .  S
C1348      C1349   1.405       .  A
C1348      S1353   1.806       .  S
C1349      C1350   1.402       .  A
C1349      H1354   1.082       .  S
C1350      C1351   1.411       .  A
C1351      C1352   1.398       .  A
C1351      S1355   1.803       .  S
C1352      H1356   1.084       .  S
S1353      H1358   1.407       .  S
S1355      H1359   1.401       .  S
C1361      C1362   1.399       .  A
C1361      C1366   1.405       .  A
C1361      H1371   1.083       .  S
C1362      C1367   1.477       .  S
C1362      C1363   1.406       .  A
C1363      C1364   1.396       .  A
C1363      S1368   1.803       .  S
C1364      C1365   1.409       .  A
C1364      H1369   1.084       .  S
C1365      C1366   1.422       .  A
C1366      S1370   1.803       .  S
C1367      C1372   1.406       .  A
C1367      C1376   1.399       .  A
S1368      H1384   1.406       .  S
S1370      H1381   1.407       .  S
C1372      C1373   1.405       .  A
C1372      S1377   1.805       .  S
C1373      C1374   1.408       .  A
C1373      H1378   1.083       .  S
C1374      C1375   1.416       .  A
C1375      C1376   1.395       .  A
C1375      S1379   1.801       .  S
C1376      H1380   1.084       .  S
S1377      H1382   1.407       .  S
S1379      H1383   1.404       .  S
C1385      C1386   1.401       .  A
C1385      C1390   1.410       .  A
C1385      H1395   1.083       .  S
C1386      C1391   1.487       .  S
C1386      C1387   1.407       .  A
C1387      C1388   1.399       .  A
C1387      S1392   1.804       .  S
C1388      C1389   1.415       .  A
C1388      H1393   1.075       .  S
C1389      C1390   1.426       .  A
C1390      S1394   1.809       .  S
C1391      C1396   1.411       .  A
C1391      C1400   1.403       .  A
S1392      H1408   1.404       .  S
S1394      H1405   1.407       .  S
C1396      C1397   1.405       .  A
C1396      S1401   1.807       .  S
C1397      C1398   1.404       .  A
C1397      H1402   1.083       .  S
C1398      C1399   1.415       .  A
C1399      C1400   1.404       .  A
C1399      S1403   1.802       .  S
C1400      H1404   1.084       .  S
S1401      H1406   1.407       .  S
S1403      H1407   1.407       .  S
C1409      C1410   1.403       .  A
C1409      C1414   1.399       .  A
C1409      H1419   1.084       .  S
C1410      C1415   1.486   1_565  S
C1410      C1411   1.414       .  A
C1411      C1412   1.404       .  A
C1411      S1416   1.803       .  S
C1412      C1413   1.403       .  A
C1412      H1417   1.084       .  S
C1413      C1414   1.412       .  A
C1414      S1418   1.801       .  S
C1415      C1420   1.410       .  A
C1415      C1424   1.404       .  A
S1416      H1432   1.406   1_565  S
S1418      H1429   1.404       .  S
C1420      C1421   1.403       .  A
C1420      S1425   1.807       .  S
C1421      C1422   1.404       .  A
C1421      H1426   1.081       .  S
C1422      C1423   1.413       .  A
C1423      C1424   1.404       .  A
C1423      S1427   1.802       .  S
C1424      H1428   1.084       .  S
S1425      H1430   1.407       .  S
S1427      H1431   1.406       .  S
C1433      C1434   1.401       .  A
C1433      C1438   1.399       .  A
C1433      H1443   1.084       .  S
C1434      C1439   1.475       .  S
C1434      C1435   1.411       .  A
C1435      C1436   1.398       .  A
C1435      S1440   1.808       .  S
C1436      C1437   1.407       .  A
C1436      H1441   1.083       .  S
C1437      C1438   1.418       .  A
C1438      S1442   1.804       .  S
C1439      C1444   1.409       .  A
C1439      C1448   1.398       .  A
S1440      H1456   1.402       .  S
S1442      H1453   1.399       .  S
C1444      C1445   1.405       .  A
C1444      S1449   1.805       .  S
C1445      C1446   1.404       .  A
C1445      H1450   1.083       .  S
C1446      C1447   1.416       .  A
C1447      C1448   1.394       .  A
C1447      S1451   1.805       .  S
C1448      H1452   1.084       .  S
S1449      H1454   1.407       .  S
S1451      H1455   1.405       .  S
C1457      C1458   1.402       .  A
C1457      C1462   1.404       .  A
C1457      H1467   1.084       .  S
C1458      C1463   1.487       .  S
C1458      C1459   1.413       .  A
C1459      C1460   1.398       .  A
C1459      S1464   1.805       .  S
C1460      C1461   1.406       .  A
C1460      H1465   1.083       .  S
C1461      C1462   1.421       .  A
C1462      S1466   1.799       .  S
C1463      C1468   1.409       .  A
C1463      C1472   1.395       .  A
S1464      H1480   1.406       .  S
S1466      H1477   1.407       .  S
C1468      C1469   1.411       .  A
C1468      S1473   1.806       .  S
C1469      C1470   1.414       .  A
C1469      H1474   1.076       .  S
C1470      C1471   1.429       .  A
C1471      C1472   1.397       .  A
C1471      S1475   1.816   1_556  S
C1472      H1476   1.083       .  S
S1473      H1478   1.407       .  S
S1475      H1479   1.406       .  S
C1481      C1482   1.399       .  A
C1481      C1486   1.404       .  A
C1481      H1491   1.083       .  S
C1482      C1487   1.485       .  S
C1482      C1483   1.407       .  A
C1483      C1484   1.397       .  A
C1483      S1488   1.805       .  S
C1484      C1485   1.414       .  A
C1484      H1489   1.081       .  S
C1485      C1486   1.427       .  A
C1486      S1490   1.805       .  S
C1487      C1492   1.412       .  A
C1487      C1496   1.405       .  A
S1488      H1504   1.407       .  S
S1490      H1501   1.406       .  S
C1492      C1493   1.399       .  A
C1492      S1497   1.809       .  S
C1493      C1494   1.400       .  A
C1493      H1498   1.080       .  S
C1494      C1495   1.413       .  A
C1495      C1496   1.401       .  A
C1495      S1499   1.807       .  S
C1496      H1500   1.084       .  S
S1497      H1502   1.407       .  S
S1499      H1503   1.401       .  S
C1505      C1506   1.399       .  A
C1505      C1510   1.398       .  A
C1505      H1515   1.084   1_565  S
C1506      C1511   1.481   1_565  S
C1506      C1507   1.413   1_556  A
C1507      C1508   1.402       .  A
C1507      S1512   1.803       .  S
C1508      C1509   1.405   1_554  A
C1508      H1513   1.084       .  S
C1509      C1510   1.415       .  A
C1510      S1514   1.798       .  S
C1511      C1516   1.407       .  A
C1511      C1520   1.395       .  A
S1512      H1528   1.406   1_565  S
S1514      H1525   1.400       .  S
C1516      C1517   1.409       .  A
C1516      S1521   1.804       .  S
C1517      C1518   1.410       .  A
C1517      H1522   1.082   1_556  S
C1518      C1519   1.422       .  A
C1519      C1520   1.398       .  A
C1519      S1523   1.805       .  S
C1520      H1524   1.083       .  S
S1521      H1526   1.407       .  S
S1523      H1527   1.406       .  S
C1529      C1530   1.405       .  A
C1529      C1534   1.400       .  A
C1529      H1539   1.084       .  S
C1530      C1535   1.486       .  S
C1530      C1531   1.413       .  A
C1531      C1532   1.401       .  A
C1531      S1536   1.803       .  S
C1532      C1533   1.404       .  A
C1532      H1537   1.084       .  S
C1533      C1534   1.413       .  A
C1534      S1538   1.804       .  S
C1535      C1540   1.406       .  A
C1535      C1544   1.402       .  A
S1536      H1552   1.406       .  S
S1538      H1549   1.407       .  S
C1540      C1541   1.401       .  A
C1540      S1545   1.808       .  S
C1541      C1542   1.414       .  A
C1541      H1546   1.079       .  S
C1542      C1543   1.423       .  A
C1543      C1544   1.403       .  A
C1543      S1547   1.805       .  S
C1544      H1548   1.084       .  S
S1545      H1550   1.407       .  S
S1547      H1551   1.402       .  S
C1553      C1554   1.396       .  A
C1553      C1558   1.406       .  A
C1553      H1563   1.083       .  S
C1554      C1559   1.483       .  S
C1554      C1555   1.406       .  A
C1555      C1556   1.401       .  A
C1555      S1560   1.803       .  S
C1556      C1557   1.417       .  A
C1556      H1561   1.078       .  S
C1557      C1558   1.437       .  A
C1558      S1562   1.813       .  S
C1559      C1564   1.408       .  A
C1559      C1568   1.400       .  A
S1560      H1576   1.404       .  S
S1562      H1573   1.406       .  S
C1564      C1565   1.403       .  A
C1564      S1569   1.807       .  S
C1565      C1566   1.408       .  A
C1565      H1570   1.082       .  S
C1566      C1567   1.421       .  A
C1567      C1568   1.403       .  A
C1567      S1571   1.800       .  S
C1568      H1572   1.084       .  S
S1569      H1574   1.406       .  S
S1571      H1575   1.404       .  S
C1577      C1578   1.397       .  A
C1577      C1582   1.407       .  A
C1577      H1587   1.083       .  S
C1578      C1583   1.487       .  S
C1578      C1579   1.404       .  A
C1579      C1580   1.398       .  A
C1579      S1584   1.805       .  S
C1580      C1581   1.422       .  A
C1580      H1585   1.075       .  S
C1581      C1582   1.436       .  A
C1582      S1586   1.809       .  S
C1583      C1588   1.409       .  A
C1583      C1592   1.403       .  A
S1584      H1600   1.406       .  S
S1586      H1597   1.407       .  S
C1588      C1589   1.406       .  A
C1588      S1593   1.807       .  S
C1589      C1590   1.408       .  A
C1589      H1594   1.082       .  S
C1590      C1591   1.417       .  A
C1591      C1592   1.402       .  A
C1591      S1595   1.801       .  S
C1592      H1596   1.084       .  S
S1593      H1598   1.407       .  S
S1595      H1599   1.408       .  S
C1601      C1602   1.403       .  A
C1601      C1606   1.401       .  A
C1601      H1611   1.084       .  S
C1602      C1607   1.484       .  S
C1602      C1603   1.412       .  A
C1603      C1604   1.398       .  A
C1603      S1608   1.805       .  S
C1604      C1605   1.405       .  A
C1604      H1609   1.084       .  S
C1605      C1606   1.417       .  A
C1606      S1610   1.802       .  S
C1607      C1612   1.404       .  A
C1607      C1616   1.399       .  A
S1608      H1624   1.406       .  S
S1610      H1621   1.407       .  S
C1612      C1613   1.400       .  A
C1612      S1617   1.810       .  S
C1613      C1614   1.416       .  A
C1613      H1618   1.072       .  S
C1614      C1615   1.426       .  A
C1615      C1616   1.406       .  A
C1615      S1619   1.810       .  S
C1616      H1620   1.083       .  S
S1617      H1622   1.406       .  S
S1619      H1623   1.406       .  S
C1625      C1626   1.400       .  A
C1625      C1630   1.408       .  A
C1625      H1635   1.083       .  S
C1626      C1631   1.486       .  S
C1626      C1627   1.409       .  A
C1627      C1628   1.399       .  A
C1627      S1632   1.806       .  S
C1628      C1629   1.414       .  A
C1628      H1633   1.074       .  S
C1629      C1630   1.425       .  A
C1630      S1634   1.810       .  S
C1631      C1636   1.409       .  A
C1631      C1640   1.402       .  A
S1632      H1648   1.405       .  S
S1634      H1645   1.406       .  S
C1636      C1637   1.407       .  A
C1636      S1641   1.806       .  S
C1637      C1638   1.407       .  A
C1637      H1642   1.083       .  S
C1638      C1639   1.417       .  A
C1639      C1640   1.401       .  A
C1639      S1643   1.803       .  S
C1640      H1644   1.084       .  S
S1641      H1646   1.407       .  S
S1643      H1647   1.408       .  S
C1649      C1650   1.404       .  A
C1649      C1654   1.402       .  A
C1649      H1659   1.084       .  S
C1650      C1655   1.489       .  S
C1650      C1651   1.414       .  A
C1651      C1652   1.403       .  A
C1651      S1656   1.804       .  S
C1652      C1653   1.406       .  A
C1652      H1657   1.084       .  S
C1653      C1654   1.415       .  A
C1654      S1658   1.802       .  S
C1655      C1660   1.404       .  A
C1655      C1664   1.392       .  A
S1656      H1672   1.405       .  S
S1658      H1669   1.407       .  S
C1660      C1661   1.409       .  A
C1660      S1665   1.806       .  S
C1661      C1662   1.422       .  A
C1661      H1666   1.076       .  S
C1662      C1663   1.441       .  A
C1663      C1664   1.402       .  A
C1663      S1667   1.812       .  S
C1664      H1668   1.083       .  S
S1665      H1670   1.407       .  S
S1667      H1671   1.406       .  S
C1673      C1674   1.405       .  A
C1673      C1678   1.401       .  A
C1673      H1683   1.084       .  S
C1674      C1679   1.490       .  S
C1674      C1675   1.415       .  A
C1675      C1676   1.402       .  A
C1675      S1680   1.804   1_554  S
C1676      C1677   1.404       .  A
C1676      H1681   1.084       .  S
C1677      C1678   1.413       .  A
C1678      S1682   1.803       .  S
C1679      C1684   1.407       .  A
C1679      C1688   1.401       .  A
S1680      H1696   1.406       .  S
S1682      H1693   1.407       .  S
C1684      C1685   1.402       .  A
C1684      S1689   1.810       .  S
C1685      C1686   1.414   1_554  A
C1685      H1690   1.072       .  S
C1686      C1687   1.424       .  A
C1687      C1688   1.408   1_556  A
C1687      S1691   1.808       .  S
C1688      H1692   1.082       .  S
S1689      H1694   1.406       .  S
S1691      H1695   1.406       .  S
C1697      C1698   1.401       .  A
C1697      C1702   1.401       .  A
C1697      H1707   1.084       .  S
C1698      C1703   1.479       .  S
C1698      C1699   1.412       .  A
C1699      C1700   1.398       .  A
C1699      S1704   1.806       .  S
C1700      C1701   1.405       .  A
C1700      H1705   1.084       .  S
C1701      C1702   1.417       .  A
C1702      S1706   1.801       .  S
C1703      C1708   1.404   1_554  A
C1703      C1712   1.398       .  A
S1704      H1720   1.405       .  S
S1706      H1717   1.408       .  S
C1708      C1709   1.401       .  A
C1708      S1713   1.809       .  S
C1709      C1710   1.414       .  A
C1709      H1714   1.072       .  S
C1710      C1711   1.424   1_556  A
C1711      C1712   1.404       .  A
C1711      S1715   1.810       .  S
C1712      H1716   1.083       .  S
S1713      H1718   1.407       .  S
S1715      H1719   1.407       .  S
C1721      C1722   1.396       .  A
C1721      C1726   1.408       .  A
C1721      H1731   1.083       .  S
C1722      C1727   1.483   1_556  S
C1722      C1723   1.404       .  A
C1723      C1724   1.397       .  A
C1723      S1728   1.806   1_556  S
C1724      C1725   1.421       .  A
C1724      H1729   1.073       .  S
C1725      C1726   1.439       .  A
C1726      S1730   1.812       .  S
C1727      C1732   1.409       .  A
C1727      C1736   1.400   1_554  A
S1728      H1744   1.405       .  S
S1730      H1741   1.406       .  S
C1732      C1733   1.405       .  A
C1732      S1737   1.807       .  S
C1733      C1734   1.407       .  A
C1733      H1738   1.082       .  S
C1734      C1735   1.418       .  A
C1735      C1736   1.401   1_554  A
C1735      S1739   1.802   1_554  S
C1736      H1740   1.084       .  S
S1737      H1742   1.407       .  S
S1739      H1743   1.408   1_556  S
C1745      C1746   1.396       .  A
C1745      C1750   1.410       .  A
C1745      H1755   1.083       .  S
C1746      C1751   1.496       .  S
C1746      C1747   1.406       .  A
C1747      C1748   1.404       .  A
C1747      S1752   1.804       .  S
C1748      C1749   1.423       .  A
C1748      H1753   1.083       .  S
C1749      C1750   1.445       .  A
C1750      S1754   1.812       .  S
C1751      C1756   1.403       .  A
C1751      C1760   1.396       .  A
S1752      H1768   1.405       .  S
S1754      H1765   1.407       .  S
C1756      C1757   1.406       .  A
C1756      S1761   1.807       .  S
C1757      C1758   1.419       .  A
C1757      H1762   1.075       .  S
C1758      C1759   1.444       .  A
C1759      C1760   1.412       .  A
C1759      S1763   1.812       .  S
C1760      H1764   1.083       .  S
S1761      H1766   1.407       .  S
S1763      H1767   1.407       .  S
C1769      C1770   1.397       .  A
C1769      C1774   1.409       .  A
C1769      H1779   1.083       .  S
C1770      C1775   1.485       .  S
C1770      C1771   1.403       .  A
C1771      C1772   1.397       .  A
C1771      S1776   1.804       .  S
C1772      C1773   1.423       .  A
C1772      H1777   1.079       .  S
C1773      C1774   1.434       .  A
C1774      S1778   1.804       .  S
C1775      C1780   1.410   1_556  A
C1775      C1784   1.401       .  A
S1776      H1792   1.405       .  S
S1778      H1789   1.407       .  S
C1780      C1781   1.405       .  A
C1780      S1785   1.807       .  S
C1781      C1782   1.406       .  A
C1781      H1786   1.083       .  S
C1782      C1783   1.419   1_554  A
C1783      C1784   1.404       .  A
C1783      S1787   1.802       .  S
C1784      H1788   1.084       .  S
S1785      H1790   1.406       .  S
S1787      H1791   1.408       .  S
C1793      C1794   1.400       .  A
C1793      C1798   1.405       .  A
C1793      H1803   1.083       .  S
C1794      C1799   1.486       .  S
C1794      C1795   1.408   1_554  A
C1795      C1796   1.399       .  A
C1795      S1800   1.805       .  S
C1796      C1797   1.414       .  A
C1796      H1801   1.074       .  S
C1797      C1798   1.425   1_556  A
C1798      S1802   1.810       .  S
C1799      C1804   1.410       .  A
C1799      C1808   1.403       .  A
S1800      H1816   1.406       .  S
S1802      H1813   1.407       .  S
C1804      C1805   1.407       .  A
C1804      S1809   1.806       .  S
C1805      C1806   1.407       .  A
C1805      H1810   1.083       .  S
C1806      C1807   1.414       .  A
C1807      C1808   1.398       .  A
C1807      S1811   1.803   1_554  S
C1808      H1812   1.084   1_554  S
S1809      H1814   1.407       .  S
S1811      H1815   1.408   1_556  S
C1817      C1818   1.400       .  A
C1817      C1822   1.401   1_556  A
C1817      H1827   1.084       .  S
C1818      C1823   1.485       .  S
C1818      C1819   1.413   1_556  A
C1819      C1820   1.404       .  A
C1819      S1824   1.804       .  S
C1820      C1821   1.408       .  A
C1820      H1825   1.083       .  S
C1821      C1822   1.419       .  A
C1822      S1826   1.802       .  S
C1823      C1828   1.403       .  A
C1823      C1832   1.391       .  A
S1824      H1840   1.406   1_554  S
S1826      H1837   1.408       .  S
C1828      C1829   1.407       .  A
C1828      S1833   1.806       .  S
C1829      C1830   1.422       .  A
C1829      H1834   1.076       .  S
C1830      C1831   1.442       .  A
C1831      C1832   1.402       .  A
C1831      S1835   1.813   1_556  S
C1832      H1836   1.083   1_556  S
S1833      H1838   1.407       .  S
S1835      H1839   1.406       .  S
C1841      C1842   1.400       .  A
C1841      C1846   1.408       .  A
C1841      H1851   1.082       .  S
C1842      C1847   1.481       .  S
C1842      C1843   1.406       .  A
C1843      C1844   1.397       .  A
C1843      S1848   1.805       .  S
C1844      C1845   1.413       .  A
C1844      H1849   1.075       .  S
C1845      C1846   1.425       .  A
C1846      S1850   1.810       .  S
C1847      C1852   1.409       .  A
C1847      C1856   1.401       .  A
S1848      H1864   1.404       .  S
S1850      H1861   1.406       .  S
C1852      C1853   1.402       .  A
C1852      S1857   1.807       .  S
C1853      C1854   1.405       .  A
C1853      H1858   1.083       .  S
C1854      C1855   1.416       .  A
C1855      C1856   1.402       .  A
C1855      S1859   1.802       .  S
C1856      H1860   1.084       .  S
S1857      H1862   1.407       .  S
S1859      H1863   1.407       .  S
C1865      C1866   1.401       .  A
C1865      C1870   1.412       .  A
C1865      H1875   1.084       .  S
C1866      C1871   1.490       .  S
C1866      C1867   1.403       .  A
C1867      C1868   1.394       .  A
C1867      S1872   1.806       .  S
C1868      C1869   1.427       .  A
C1868      H1873   1.082       .  S
C1869      C1870   1.442       .  A
C1870      S1874   1.802       .  S
C1871      C1876   1.413       .  A
C1871      C1880   1.404       .  A
S1872      H1888   1.406       .  S
S1874      H1885   1.398       .  S
C1876      C1877   1.403       .  A
C1876      S1881   1.805       .  S
C1877      C1878   1.402       .  A
C1877      H1882   1.083       .  S
C1878      C1879   1.415       .  A
C1879      C1880   1.404       .  A
C1879      S1883   1.803       .  S
C1880      H1884   1.084       .  S
S1881      H1886   1.407       .  S
S1883      H1887   1.407       .  S
C1889      C1890   1.402       .  A
C1889      C1894   1.400       .  A
C1889      H1899   1.084       .  S
C1890      C1895   1.484       .  S
C1890      C1891   1.412       .  A
C1891      C1892   1.402       .  A
C1891      S1896   1.804       .  S
C1892      C1893   1.407       .  A
C1892      H1897   1.084       .  S
C1893      C1894   1.416       .  A
C1894      S1898   1.801       .  S
C1895      C1900   1.406       .  A
C1895      C1904   1.398       .  A
S1896      H1912   1.406       .  S
S1898      H1909   1.407       .  S
C1900      C1901   1.402   1_556  A
C1900      S1905   1.809   1_556  S
C1901      C1902   1.414   1_554  A
C1901      H1906   1.072       .  S
C1902      C1903   1.427       .  A
C1903      C1904   1.405       .  A
C1903      S1907   1.809       .  S
C1904      H1908   1.083       .  S
S1905      H1910   1.406       .  S
S1907      H1911   1.406       .  S
C1913      C1914   1.404       .  A
C1913      C1918   1.402       .  A
C1913      H1923   1.084       .  S
C1914      C1919   1.487       .  S
C1914      C1915   1.412       .  A
C1915      C1916   1.401       .  A
C1915      S1920   1.804   1_556  S
C1916      C1917   1.406       .  A
C1916      H1921   1.084       .  S
C1917      C1918   1.416       .  A
C1918      S1922   1.802       .  S
C1919      C1924   1.401       .  A
C1919      C1928   1.399   1_556  A
S1920      H1936   1.405       .  S
S1922      H1933   1.406       .  S
C1924      C1925   1.398       .  A
C1924      S1929   1.808       .  S
C1925      C1926   1.421   1_556  A
C1925      H1930   1.076       .  S
C1926      C1927   1.437       .  A
C1927      C1928   1.411       .  A
C1927      S1931   1.809       .  S
C1928      H1932   1.083       .  S
S1929      H1934   1.407       .  S
S1931      H1935   1.407       .  S
C1937      C1938   1.404   1_556  A
C1937      C1942   1.401       .  A
C1937      H1947   1.084       .  S
C1938      C1943   1.484       .  S
C1938      C1939   1.413       .  A
C1939      C1940   1.394       .  A
C1939      S1944   1.804       .  S
C1940      C1941   1.399       .  A
C1940      H1945   1.084       .  S
C1941      C1942   1.415   1_554  A
C1942      S1946   1.809       .  S
C1943      C1948   1.405   1_554  A
C1943      C1952   1.398       .  A
S1944      H1960   1.406       .  S
S1946      H1957   1.402       .  S
C1948      C1949   1.401       .  A
C1948      S1953   1.808       .  S
C1949      C1950   1.414   1_556  A
C1949      H1954   1.080       .  S
C1950      C1951   1.427       .  A
C1951      C1952   1.403       .  A
C1951      S1955   1.805       .  S
C1952      H1956   1.083       .  S
S1953      H1958   1.406       .  S
S1955      H1959   1.406       .  S
C1961      C1962   1.403       .  A
C1961      C1966   1.395       .  A
C1961      H1971   1.084       .  S
C1962      C1967   1.486       .  S
C1962      C1963   1.414       .  A
C1963      C1964   1.404       .  A
C1963      S1968   1.803       .  S
C1964      C1965   1.406       .  A
C1964      H1969   1.084       .  S
C1965      C1966   1.413       .  A
C1966      S1970   1.803       .  S
C1967      C1972   1.409       .  A
C1967      C1976   1.401       .  A
S1968      H1984   1.406       .  S
S1970      H1981   1.407       .  S
C1972      C1973   1.401       .  A
C1972      S1977   1.808       .  S
C1973      C1974   1.410       .  A
C1973      H1978   1.082       .  S
C1974      C1975   1.424       .  A
C1975      C1976   1.402       .  A
C1975      S1979   1.804   1_556  S
C1976      H1980   1.083       .  S
S1977      H1982   1.406       .  S
S1979      H1983   1.406       .  S
C1985      C1986   1.404       .  A
C1985      C1990   1.403       .  A
C1985      H1995   1.084       .  S
C1986      C1991   1.480       .  S
C1986      C1987   1.411       .  A
C1987      C1988   1.396       .  A
C1987      S1992   1.805       .  S
C1988      C1989   1.405       .  A
C1988      H1993   1.084       .  S
C1989      C1990   1.413       .  A
C1990      S1994   1.800       .  S
C1991      C1996   1.407       .  A
C1991      C2000   1.400       .  A
S1992      H2008   1.405       .  S
S1994      H2005   1.405   1_556  S
C1996      C1997   1.401       .  A
C1996      S2001   1.807   1_556  S
C1997      C1998   1.407       .  A
C1997      H2002   1.082   1_556  S
C1998      C1999   1.417       .  A
C1999      C2000   1.406       .  A
C1999      S2003   1.802       .  S
C2000      H2004   1.083       .  S
S2001      H2006   1.406       .  S
S2003      H2007   1.406       .  S
C2009      C2010   1.401       .  A
C2009      C2014   1.407   1_554  A
C2009      H2019   1.084       .  S
C2010      C2015   1.486       .  S
C2010      C2011   1.408       .  A
C2011      C2012   1.396   1_554  A
C2011      S2016   1.806       .  S
C2012      C2013   1.415       .  A
C2012      H2017   1.079       .  S
C2013      C2014   1.429       .  A
C2014      S2018   1.805       .  S
C2015      C2020   1.410       .  A
C2015      C2024   1.401       .  A
S2016      H2032   1.406       .  S
S2018      H2029   1.402       .  S
C2020      C2021   1.406       .  A
C2020      S2025   1.806       .  S
C2021      C2022   1.407       .  A
C2021      H2026   1.083       .  S
C2022      C2023   1.418       .  A
C2023      C2024   1.401       .  A
C2023      S2027   1.801   1_554  S
C2024      H2028   1.084   1_554  S
S2025      H2030   1.407       .  S
S2027      H2031   1.408       .  S
C2033      C2034   1.404   1_554  A
C2033      C2038   1.402   1_554  A
C2033      H2043   1.084       .  S
C2034      C2039   1.483   1_565  S
C2034      C2035   1.410       .  A
C2035      C2036   1.397       .  A
C2035      S2040   1.804   1_565  S
C2036      C2037   1.402       .  A
C2036      H2041   1.077       .  S
C2037      C2038   1.417       .  A
C2038      S2042   1.803   1_556  S
C2039      C2044   1.411   1_556  A
C2039      C2048   1.403       .  A
S2040      H2056   1.406       .  S
S2042      H2053   1.406       .  S
C2044      C2045   1.404       .  A
C2044      S2049   1.806       .  S
C2045      C2046   1.402   1_554  A
C2045      H2050   1.081       .  S
C2046      C2047   1.411       .  A
C2047      C2048   1.397       .  A
C2047      S2051   1.804       .  S
C2048      H2052   1.084       .  S
S2049      H2054   1.407       .  S
S2051      H2055   1.404       .  S
C2057      C2058   1.402       .  A
C2057      C2062   1.397       .  A
C2057      H2067   1.084       .  S
C2058      C2063   1.480       .  S
C2058      C2059   1.411       .  A
C2059      C2060   1.401       .  A
C2059      S2064   1.804       .  S
C2060      C2061   1.406       .  A
C2060      H2065   1.084       .  S
C2061      C2062   1.414       .  A
C2062      S2066   1.802       .  S
C2063      C2068   1.405       .  A
C2063      C2072   1.398       .  A
S2064      H2080   1.405       .  S
S2066      H2077   1.408       .  S
C2068      C2069   1.401       .  A
C2068      S2073   1.809       .  S
C2069      C2070   1.413       .  A
C2069      H2074   1.073       .  S
C2070      C2071   1.425       .  A
C2071      C2072   1.404       .  A
C2071      S2075   1.809       .  S
C2072      H2076   1.083       .  S
S2073      H2078   1.406       .  S
S2075      H2079   1.406       .  S
C2081      C2082   1.403       .  A
C2081      C2086   1.400       .  A
C2081      H2091   1.084       .  S
C2082      C2087   1.488       .  S
C2082      C2083   1.414       .  A
C2083      C2084   1.399       .  A
C2083      S2088   1.804       .  S
C2084      C2085   1.406       .  A
C2084      H2089   1.084       .  S
C2085      C2086   1.416       .  A
C2086      S2090   1.797       .  S
C2087      C2092   1.413       .  A
C2087      C2096   1.405       .  A
S2088      H2104   1.406       .  S
S2090      H2101   1.405       .  S
C2092      C2093   1.402       .  A
C2092      S2097   1.808       .  S
C2093      C2094   1.402       .  A
C2093      H2098   1.083       .  S
C2094      C2095   1.411       .  A
C2095      C2096   1.401       .  A
C2095      S2099   1.801       .  S
C2096      H2100   1.084       .  S
S2097      H2102   1.407       .  S
S2099      H2103   1.405       .  S
C2105      C2106   1.401       .  A
C2105      C2110   1.399       .  A
C2105      H2115   1.084       .  S
C2106      C2111   1.473       .  S
C2106      C2107   1.412       .  A
C2107      C2108   1.397       .  A
C2107      S2112   1.809       .  S
C2108      C2109   1.405       .  A
C2108      H2113   1.084       .  S
C2109      C2110   1.413       .  A
C2110      S2114   1.799       .  S
C2111      C2116   1.405       .  A
C2111      C2120   1.399       .  A
S2112      H2128   1.401       .  S
S2114      H2125   1.404       .  S
C2116      C2117   1.400       .  A
C2116      S2121   1.806       .  S
C2117      C2118   1.408       .  A
C2117      H2122   1.082       .  S
C2118      C2119   1.416       .  A
C2119      C2120   1.402       .  A
C2119      S2123   1.805       .  S
C2120      H2124   1.083       .  S
S2121      H2126   1.407       .  S
S2123      H2127   1.407       .  S
C2129      C2130   1.395       .  A
C2129      C2134   1.399       .  A
C2129      H2139   1.083       .  S
C2130      C2135   1.481       .  S
C2130      C2131   1.410       .  A
C2131      C2132   1.405       .  A
C2131      S2136   1.804       .  S
C2132      C2133   1.412       .  A
C2132      H2137   1.077       .  S
C2133      C2134   1.428       .  A
C2134      S2138   1.815       .  S
C2135      C2140   1.408       .  A
C2135      C2144   1.400       .  A
S2136      H2152   1.405       .  S
S2138      H2149   1.406       .  S
C2140      C2141   1.403       .  A
C2140      S2145   1.807       .  S
C2141      C2142   1.408       .  A
C2141      H2146   1.082       .  S
C2142      C2143   1.419       .  A
C2143      C2144   1.402       .  A
C2143      S2147   1.801       .  S
C2144      H2148   1.084       .  S
S2145      H2150   1.407       .  S
S2147      H2151   1.407       .  S
C2153      C2154   1.403       .  A
C2153      C2158   1.401       .  A
C2153      H2163   1.084       .  S
C2154      C2159   1.478       .  S
C2154      C2155   1.411       .  A
C2155      C2156   1.394       .  A
C2155      S2160   1.805       .  S
C2156      C2157   1.399       .  A
C2156      H2161   1.083       .  S
C2157      C2158   1.414       .  A
C2158      S2162   1.808       .  S
C2159      C2164   1.407       .  A
C2159      C2168   1.401       .  A
S2160      H2176   1.406       .  S
S2162      H2173   1.399       .  S
C2164      C2165   1.397       .  A
C2164      S2169   1.808       .  S
C2165      C2166   1.406       .  A
C2165      H2170   1.082       .  S
C2166      C2167   1.416       .  A
C2167      C2168   1.405       .  A
C2167      S2171   1.807       .  S
C2168      H2172   1.083       .  S
S2169      H2174   1.407       .  S
S2171      H2175   1.407       .  S
C2177      C2178   1.403       .  A
C2177      C2182   1.404       .  A
C2177      H2187   1.083       .  S
C2178      C2183   1.478   1_565  S
C2178      C2179   1.409       .  A
C2179      C2180   1.397       .  A
C2179      S2184   1.803       .  S
C2180      C2181   1.404       .  A
C2180      H2185   1.084       .  S
C2181      C2182   1.413       .  A
C2182      S2186   1.806       .  S
C2183      C2188   1.408       .  A
C2183      C2192   1.402       .  A
S2184      H2200   1.404   1_565  S
S2186      H2197   1.406       .  S
C2188      C2189   1.400       .  A
C2188      S2193   1.807       .  S
C2189      C2190   1.403       .  A
C2189      H2194   1.083       .  S
C2190      C2191   1.414       .  A
C2191      C2192   1.401       .  A
C2191      S2195   1.803       .  S
C2192      H2196   1.084       .  S
S2193      H2198   1.407       .  S
S2195      H2199   1.405       .  S
C2201      C2202   1.402       .  A
C2201      C2206   1.399       .  A
C2201      H2211   1.084       .  S
C2202      C2207   1.478       .  S
C2202      C2203   1.412       .  A
C2203      C2204   1.399       .  A
C2203      S2208   1.805       .  S
C2204      C2205   1.404       .  A
C2204      H2209   1.084       .  S
C2205      C2206   1.411       .  A
C2206      S2210   1.799       .  S
C2207      C2212   1.407       .  A
C2207      C2216   1.400       .  A
S2208      H2224   1.405       .  S
S2210      H2221   1.406       .  S
C2212      C2213   1.404       .  A
C2212      S2217   1.805       .  S
C2213      C2214   1.406       .  A
C2213      H2218   1.083       .  S
C2214      C2215   1.418       .  A
C2215      C2216   1.397       .  A
C2215      S2219   1.807       .  S
C2216      H2220   1.084       .  S
S2217      H2222   1.407       .  S
S2219      H2223   1.402       .  S
