geometry optimzed in LAMMPS
_audit_creation_date              2020-11-30 
_audit_creation_method            'lammps2cif' 
_symmetry_space_group_name_H-M    'P1' 
_symmetry_Int_Tables_number       1 
_symmetry_cell_setting            triclinic 
loop_ 
_symmetry_equiv_pos_as_xyz 
  x,y,z 
_cell_length_a                    50.32296053 
_cell_length_b                    50.12643147388657 
_cell_length_c                    49.87278899038197 
_cell_angle_alpha                 89.38665973919042 
_cell_angle_beta                  90.09479016695973 
_cell_angle_gamma                 89.60564785335646 
loop_ 
_atom_site_label 
_atom_site_type_symbol 
_atom_site_fract_x 
_atom_site_fract_y 
_atom_site_fract_z 
_atom_site_charge 
O1          O  0.22372534  0.71201691  0.74192746    -0.79400
O2          O  0.24522094  0.80644574  0.78815912    -0.79400
O3          O  0.25693397  0.72327822  0.80414760    -0.79400
O4          O  0.26300875  0.78254900  0.69814236    -0.79400
O5          O  0.22869914  0.75313871  0.78723221    -0.79500
O6          O  0.22827320  0.75887087  0.70913916    -0.79400
O7          O  0.25081548  0.80331213  0.74387200    -0.79400
O8          O  0.25445674  0.68884015  0.76432085    -0.79400
C9          C  0.23052190  0.69178795  0.75611343     1.10300
C10         C  0.24092942  0.81524905  0.76449247     1.10200
C11         C  0.23384110  0.73391650  0.80361975     1.10300
C12         C  0.23862061  0.77734998  0.69514980     1.10200
O13         O  0.27945009  0.73758375  0.69042109    -0.79400
O14         O  0.27943471  0.76653059  0.80676937    -0.79500
O15         O  0.30684846  0.70319117  0.74509388    -0.79400
O16         O  0.30084449  0.80931515  0.72464924    -0.79400
O17         O  0.29456411  0.79796217  0.76739849    -0.79400
O18         O  0.27241436  0.69365318  0.71958504    -0.79400
O19         O  0.31058736  0.75593953  0.71567951    -0.79400
O20         O  0.30992034  0.74028434  0.78927721    -0.79400
Co21       Co  0.25104006  0.72705251  0.71733872     1.51500
Co22       Co  0.25950521  0.77451005  0.77344844     1.51700
Co23       Co  0.28230796  0.71584224  0.77401606     1.51600
Co24       Co  0.28235640  0.77766171  0.73268113     1.51500
O25         O  0.26833274  0.74478036  0.74907246    -1.41300
C26         C  0.30372925  0.74393581  0.69445236     1.10200
C27         C  0.30237764  0.75600779  0.80776907     1.10300
C28         C  0.29670447  0.69025539  0.72575210     1.10200
C29         C  0.30579019  0.81290391  0.74923839     1.10200
O30         O  0.74065650  0.20415327  0.71281911    -0.79400
O31         O  0.74634331  0.20489858  0.78746207    -0.79400
O32         O  0.80065556  0.24139667  0.72383480    -0.79400
O33         O  0.68546988  0.24147062  0.77439930    -0.79400
O34         O  0.78540255  0.20699817  0.74620283    -0.79500
O35         O  0.70127588  0.20654075  0.75382560    -0.79400
O36         O  0.72452665  0.23727861  0.80781553    -0.79400
O37         O  0.76136816  0.23640592  0.69084778    -0.79400
C38         C  0.75524974  0.21178091  0.69351897     1.10300
C39         C  0.73184211  0.21282445  0.80657891     1.10200
C40         C  0.80221971  0.21687376  0.72999835     1.10300
C41         C  0.68408322  0.21688138  0.76921846     1.10200
O42         O  0.68410418  0.25737203  0.72985883    -0.79400
O43         O  0.80157406  0.25798807  0.76817775    -0.79500
O44         O  0.73867309  0.28848739  0.70739315    -0.79400
O45         O  0.74606998  0.28923277  0.78876273    -0.79400
O46         O  0.76742782  0.25521580  0.80658386    -0.79400
O47         O  0.71835029  0.25354205  0.69173614    -0.79400
O48         O  0.70347904  0.29063664  0.75077412    -0.79400
O49         O  0.78204901  0.29076166  0.74541316    -0.79400
Co50       Co  0.71391157  0.23059185  0.72452603     1.51500
Co51       Co  0.77235549  0.23142148  0.77459658     1.51700
Co52       Co  0.76802722  0.26418868  0.71951320     1.51600
Co53       Co  0.71755496  0.26451100  0.77778263     1.51500
O54         O  0.74300561  0.24774863  0.74910257    -1.41300
C55         C  0.68447079  0.28187210  0.73653199     1.10200
C56         C  0.80065480  0.28239069  0.76087560     1.10300
C57         C  0.72208904  0.27852264  0.69118719     1.10200
C58         C  0.76105657  0.27977652  0.80693628     1.10200
O59         O  0.68817753  0.70442348  0.21905662    -0.79400
O60         O  0.78906319  0.73315798  0.21548089    -0.79400
O61         O  0.72241638  0.79406932  0.22642954    -0.79400
O62         O  0.76181452  0.66963823  0.24719077    -0.79400
O63         O  0.76393228  0.78601573  0.21251704    -0.79500
O64         O  0.74247063  0.69303361  0.21516323    -0.79400
O65         O  0.80143287  0.70602184  0.24847335    -0.79400
O66         O  0.71155739  0.74182159  0.21331218    -0.79400
C67         C  0.68990453  0.72824193  0.20951902     1.10300
C68         C  0.80416681  0.71482886  0.22474397     1.10200
C69         C  0.74225874  0.80035277  0.21159798     1.10300
C70         C  0.75588589  0.67272308  0.22264682     1.10200
O71         O  0.71499600  0.67534641  0.26368332    -0.79400
O72         O  0.77849446  0.78068329  0.26100912    -0.79500
O73         O  0.69185832  0.76260946  0.26389964    -0.79400
O74         O  0.78530051  0.72528115  0.29742765    -0.79400
O75         O  0.79408875  0.75573862  0.26455215    -0.79400
O76         O  0.69205293  0.71962332  0.27015190    -0.79400
O77         O  0.74233002  0.68590772  0.29734401    -0.79400
O78         O  0.73931607  0.78337448  0.27755609    -0.79400
Co79       Co  0.71770786  0.70885688  0.24234530     1.51500
Co80       Co  0.76216995  0.75337621  0.23693451     1.51700
Co81       Co  0.72758019  0.76105751  0.24641336     1.51600
Co82       Co  0.77113351  0.69856451  0.27269845     1.51500
O83         O  0.74487140  0.72671667  0.26072013    -1.41300
C84         C  0.72247984  0.67293287  0.28809245     1.10200
C85         C  0.76254813  0.79262199  0.27674195     1.10300
C86         C  0.68192418  0.74208494  0.27459288     1.10200
C87         C  0.79945405  0.74412889  0.28775774     1.10200
C88         C  0.51869337  0.99707496  0.02443661     0.03000
C89         C  0.49693964  0.97899150  0.02530822     0.03000
C90         C  0.47738934  0.98032133  0.00472956     0.03000
C91         C  0.47859180  0.00013366  0.98420083     0.03000
C92         C  0.49997888  0.01845434  0.98347935     0.03000
C93         C  0.52033510  0.01674264  0.00343537     0.03000
N94         N  0.66977076  0.99692563  0.15810782    -0.02700
C95         C  0.68984405  0.97857023  0.16004771    -0.00100
C96         C  0.71128472  0.98889809  0.17363651    -0.23000
C97         C  0.70459625  0.01442726  0.18024148    -0.23200
C98         C  0.67926568  0.01898315  0.17047687    -0.00200
H99         H  0.72947826  0.97852164  0.17906955     0.13500
H100        H  0.71671771  0.02818890  0.19142554     0.13600
N101        N  0.66223067  0.16074061  0.00650159    -0.02700
C102        C  0.67732617  0.16902033  0.98522551    -0.00100
C103        C  0.69414839  0.18937033  0.99226144    -0.23000
C104        C  0.68988442  0.19409093  0.01867962    -0.23200
C105        C  0.67058050  0.17646102  0.02708210    -0.00200
H106        H  0.70808566  0.19967533  0.97935938     0.13500
H107        H  0.70027335  0.20846110  0.03083004     0.13600
N108        N  0.32726983  0.99670305  0.85080690    -0.02700
C109        C  0.30569948  0.01331636  0.85065424    -0.00100
C110        C  0.28357145  0.00058792  0.84078000    -0.23000
C111        C  0.29132310  0.97530200  0.83457316    -0.23200
C112        C  0.31799725  0.97331510  0.84081454    -0.00200
H113        H  0.26429468  0.00946410  0.83669022     0.13500
H114        H  0.27914896  0.96028482  0.82522629     0.13600
N115        N  0.48459969  0.15697439  0.83493258    -0.02700
C116        C  0.46097426  0.16300611  0.82268662    -0.00100
C117        C  0.46349659  0.16243023  0.79513910    -0.23000
C118        C  0.48946362  0.15670538  0.78988256    -0.23200
C119        C  0.50205546  0.15390200  0.81434872    -0.00200
H120        H  0.44870301  0.16852090  0.78048694     0.13500
H121        H  0.49886752  0.15783920  0.77040530     0.13600
N122        N  0.50993327  0.84365981  0.17811053    -0.02700
C123        C  0.49562038  0.84734699  0.20099337    -0.00100
C124        C  0.51200697  0.84579355  0.22320457    -0.23000
C125        C  0.53665594  0.83889216  0.21414902    -0.23200
C126        C  0.53470367  0.83629273  0.18661090    -0.00200
H127        H  0.50581566  0.84518886  0.24398676     0.13500
H128        H  0.55294501  0.83194171  0.22667775     0.13600
N129        N  0.35038354  0.82656194  0.00015663    -0.02700
C130        C  0.33224065  0.81943602  0.01906382    -0.00100
C131        C  0.31916898  0.79657802  0.01135675    -0.23000
C132        C  0.32937875  0.78948874  0.98697217    -0.23200
C133        C  0.34831174  0.80825070  0.98036804    -0.00200
H134        H  0.30353087  0.78639594  0.02215097     0.13500
H135        H  0.32283093  0.77307387  0.97472862     0.13600
C136        C  0.97497858  0.48190333  0.99449755     0.03000
C137        C  0.99501625  0.48172258  0.97455119     0.03000
C138        C  0.01518850  0.50165512  0.97432600     0.03000
C139        C  0.01499406  0.52193953  0.99437250     0.03000
C140        C  0.99440661  0.52227857  0.01422332     0.03000
C141        C  0.97459357  0.50199561  0.01433409     0.03000
N142        N  0.14205014  0.67734729  0.99573608    -0.02700
C143        C  0.14125758  0.69531688  0.97504821    -0.00100
C144        C  0.14559734  0.72076794  0.98443266    -0.23000
C145        C  0.14983799  0.71853635  0.01146004    -0.23200
C146        C  0.14771673  0.69180908  0.01796031    -0.00200
H147        H  0.14891629  0.73851523  0.97237455     0.13500
H148        H  0.15640962  0.73429212  0.02452111     0.13600
N149        N  0.13709319  0.50600655  0.81141739    -0.02700
C150        C  0.13812088  0.52481726  0.79129326    -0.00100
C151        C  0.14690296  0.51342554  0.76776392    -0.23000
C152        C  0.15229904  0.48727475  0.77332282    -0.23200
C153        C  0.14700946  0.48317025  0.80019046    -0.00200
H154        H  0.15160211  0.52364108  0.74915963     0.13500
H155        H  0.16138988  0.47320660  0.75974195     0.13600
N156        N  0.00068351  0.63430073  0.18082309    -0.02700
C157        C  0.02037451  0.63460803  0.19972169    -0.00100
C158        C  0.00951605  0.63629762  0.22507777    -0.23000
C159        C  0.98255146  0.63780885  0.22187210    -0.23200
C160        C  0.97749263  0.63717342  0.19464158    -0.00200
H161        H  0.02011123  0.63915977  0.24371479     0.13500
H162        H  0.96834208  0.64221373  0.23751269     0.13600
N163        N  0.85717742  0.49258320  0.17818258    -0.02700
C164        C  0.85612471  0.47434824  0.19865019    -0.00100
C165        C  0.84576369  0.48610161  0.22138426    -0.23000
C166        C  0.84076246  0.51227259  0.21508041    -0.23200
C167        C  0.84802507  0.51582504  0.18864684    -0.00200
H168        H  0.84101109  0.47630456  0.24020231     0.13500
H169        H  0.83155044  0.52689368  0.22796854     0.13600
N170        N  0.99820341  0.36048970  0.81489416    -0.02700
C171        C  0.97808651  0.36062100  0.79660525    -0.00100
C172        C  0.98810383  0.35632100  0.77122768    -0.23000
C173        C  0.01505606  0.35310075  0.77387693    -0.23200
C174        C  0.02083287  0.35554191  0.80082549    -0.00200
H175        H  0.97668496  0.35270314  0.75323198     0.13500
H176        H  0.02853667  0.34667663  0.75829210     0.13600
N177        N  0.83523724  0.33577813  0.00293888    -0.02700
C178        C  0.82522073  0.32116940  0.02400470    -0.00100
C179        C  0.80380358  0.30612482  0.01581086    -0.23000
C180        C  0.80010293  0.31123377  0.98923653    -0.23200
C181        C  0.81928482  0.32927093  0.98175395    -0.00200
H182        H  0.79221046  0.29253805  0.02799726     0.13500
H183        H  0.78535213  0.30223980  0.97641260     0.13600
C184        C  0.47299800  0.51500825  0.48819490     0.03000
C185        C  0.47151295  0.49413135  0.50793595     0.03000
C186        C  0.49061901  0.47295983  0.50807605     0.03000
C187        C  0.50998030  0.47196579  0.48737280     0.03000
C188        C  0.51039888  0.49176663  0.46659379     0.03000
C189        C  0.49201801  0.51353332  0.46714158     0.03000
N190        N  0.49179531  0.33783557  0.66225093    -0.02700
C191        C  0.51273370  0.33318048  0.67905174    -0.00100
C192        C  0.50612346  0.31496341  0.69883486    -0.23000
C193        C  0.48035623  0.30791289  0.69430530    -0.23200
C194        C  0.47192663  0.32199070  0.67186400    -0.00200
H195        H  0.51897854  0.30718240  0.71453556     0.13500
H196        H  0.46878350  0.29406308  0.70622702     0.13600
N197        N  0.33210896  0.65882705  0.50613209    -0.02700
C198        C  0.31081092  0.66364420  0.48976737    -0.00100
C199        C  0.29191787  0.67882073  0.50278484    -0.23000
C200        C  0.30165968  0.68370532  0.52785448    -0.23200
C201        C  0.32621536  0.67135141  0.52946857    -0.00200
H202        H  0.27353157  0.68657770  0.49442103     0.13500
H203        H  0.29209388  0.69543355  0.54321672     0.13600
N204        N  0.62678728  0.48855958  0.30306463    -0.02700
C205        C  0.63308833  0.51208633  0.29116292    -0.00100
C206        C  0.64144726  0.50802242  0.26509829    -0.23000
C207        C  0.63986667  0.48115041  0.26067468    -0.23200
C208        C  0.63065029  0.46974003  0.28416423    -0.00200
H209        H  0.64915019  0.52282974  0.25125995     0.13500
H210        H  0.64637101  0.47081853  0.24288255     0.13600
N211        N  0.48882981  0.66732691  0.33249082    -0.02700
C212        C  0.50432573  0.68868969  0.33855098    -0.00100
C213        C  0.48994725  0.71216367  0.33705096    -0.23000
C214        C  0.46515985  0.70567019  0.32840814    -0.23200
C215        C  0.46506038  0.67836061  0.32466086    -0.00200
H216        H  0.49778954  0.73218606  0.33812979     0.13500
H217        H  0.45015427  0.71977689  0.32159070     0.13600
N218        N  0.31697760  0.49482818  0.63748322    -0.02700
C219        C  0.29663308  0.47701055  0.63882466    -0.00100
C220        C  0.27387643  0.48913442  0.64847871    -0.23000
C221        C  0.28006691  0.51511813  0.65317311    -0.23200
C222        C  0.30647958  0.51827184  0.64648919    -0.00200
H223        H  0.25525752  0.47965710  0.65353158     0.13500
H224        H  0.26721227  0.52977527  0.66240510     0.13600
N225        N  0.62813857  0.30965962  0.50266015    -0.02700
C226        C  0.63150612  0.30202849  0.52886576    -0.00100
C227        C  0.63493095  0.27478512  0.53098667    -0.23000
C228        C  0.63477690  0.26511257  0.50558527    -0.23200
C229        C  0.63108868  0.28665856  0.48837028    -0.00200
H230        H  0.64029964  0.26359015  0.54890771     0.13500
H231        H  0.63943384  0.24476071  0.50014771     0.13600
C232        C  0.02951663  0.97598328  0.49371647     0.03000
C233        C  0.00783328  0.97380694  0.47539695     0.03000
C234        C  0.98580611  0.99174735  0.47715477     0.03000
C235        C  0.98581552  0.01248043  0.49628044     0.03000
C236        C  0.00695558  0.01425484  0.51513875     0.03000
C237        C  0.02886672  0.99609862  0.51387060     0.03000
N238        N  0.99912825  0.14982340  0.66377081    -0.02700
C239        C  0.02081226  0.15744548  0.67807891    -0.00100
C240        C  0.01729475  0.15284088  0.70509333    -0.23000
C241        C  0.99220085  0.14309001  0.70797011    -0.23200
C242        C  0.98083436  0.14271833  0.68267630    -0.00200
H243        H  0.03054031  0.15850984  0.72114883     0.13500
H244        H  0.98179496  0.14112868  0.72686848     0.13600
N245        N  0.18129881  0.98711145  0.64745669    -0.02700
C246        C  0.19221678  0.96204407  0.64858985    -0.00100
C247        C  0.21909947  0.96308598  0.64298747    -0.23000
C248        C  0.22584360  0.98933196  0.64190996    -0.23200
C249        C  0.20270209  0.00371173  0.64575357    -0.00200
H250        H  0.23324215  0.94680344  0.64517950     0.13500
H251        H  0.24592716  0.99690633  0.64169796     0.13600
N252        N  0.18202698  0.84257433  0.49559081    -0.02700
C253        C  0.19497727  0.83227734  0.51736551    -0.00100
C254        C  0.21102235  0.81109262  0.51009694    -0.23000
C255        C  0.20835092  0.80835214  0.48303468    -0.23200
C256        C  0.19070286  0.82788427  0.47447064    -0.00200
H257        H  0.22398048  0.79942632  0.52307665     0.13500
H258        H  0.21960391  0.79481478  0.47057335     0.13600
N259        N  0.86243902  0.16857218  0.52294234    -0.02700
C260        C  0.85992157  0.18893491  0.50481722    -0.00100
C261        C  0.85521703  0.21264478  0.51803045    -0.23000
C262        C  0.85414732  0.20672672  0.54485978    -0.23200
C263        C  0.85829960  0.17955238  0.54738639    -0.00200
H264        H  0.85003128  0.23166979  0.50889891     0.13500
H265        H  0.84790568  0.22023410  0.56046049     0.13600
N266        N  0.82304062  0.98762669  0.36109747    -0.02700
C267        C  0.81243504  0.01255346  0.35929101    -0.00100
C268        C  0.78545960  0.01134835  0.35443334    -0.23000
C269        C  0.77916170  0.98480894  0.35322066    -0.23200
C270        C  0.80246347  0.97061293  0.35747842    -0.00200
H271        H  0.77232218  0.02793603  0.34973336     0.13500
H272        H  0.76018144  0.97675830  0.34723301     0.13600
N273        N  0.99165562  0.83724316  0.32888599    -0.02700
C274        C  0.01335681  0.83457674  0.31287050    -0.00100
C275        C  0.00677279  0.82356939  0.28859615    -0.23000
C276        C  0.98014891  0.81898352  0.28935125    -0.23200
C277        C  0.97110896  0.82733821  0.31412189    -0.00200
H278        H  0.02026846  0.81794593  0.27271739     0.13500
H279        H  0.96871389  0.80929915  0.27388425     0.13600
O280        O  0.26097109  0.18816313  0.73993570    -0.79400
O281        O  0.24472634  0.28567742  0.71085037    -0.79400
O282        O  0.18589859  0.23908690  0.72287896    -0.79400
O283        O  0.29402076  0.27111458  0.74347284    -0.79400
O284        O  0.18890701  0.28211067  0.71039308    -0.79500
O285        O  0.29224505  0.23130044  0.72719202    -0.79400
O286        O  0.26189612  0.30632183  0.74553045    -0.79400
O287        O  0.22651453  0.20339064  0.71829895    -0.79400
C288        C  0.24347440  0.18532963  0.72191240     1.10300
C289        C  0.25790936  0.30521390  0.72030120     1.10200
C290        C  0.17755611  0.25944684  0.70873597     1.10300
C291        C  0.30198966  0.25421181  0.72671298     1.10200
O292        O  0.29521850  0.24521641  0.78504561    -0.79400
O293        O  0.18610307  0.26805430  0.76172779    -0.79500
O294        O  0.22492070  0.18907358  0.77548914    -0.79400
O295        O  0.23410030  0.28975589  0.79326668    -0.79400
O296        O  0.21475835  0.30504164  0.75633800    -0.79400
O297        O  0.25789376  0.20914501  0.79421461    -0.79400
O298        O  0.29089378  0.28864883  0.79367025    -0.79400
O299        O  0.19078191  0.23040161  0.78259294    -0.79400
Co300      Co  0.27352837  0.22077148  0.76032515     1.51500
Co301      Co  0.21626674  0.27136938  0.73479595     1.51700
Co302      Co  0.20996408  0.21820034  0.75060615     1.51600
Co303      Co  0.26364179  0.27480057  0.77049965     1.51500
O304        O  0.24078511  0.24687895  0.75413063    -1.41300
C305        C  0.30294279  0.26630004  0.79739318     1.10200
C306        C  0.17955773  0.25255704  0.78051008     1.10300
C307        C  0.24252427  0.18971877  0.79372975     1.10200
C308        C  0.21834333  0.30650460  0.78163563     1.10200
O309        O  0.76880609  0.18011869  0.28167907    -0.79400
O310        O  0.76535145  0.29628480  0.24118653    -0.79400
O311        O  0.80218551  0.24436384  0.21942952    -0.79400
O312        O  0.79368540  0.24863894  0.30892268    -0.79400
O313        O  0.76624644  0.26759354  0.20609232    -0.79500
O314        O  0.77081770  0.21320079  0.31402433    -0.79400
O315        O  0.79211773  0.28665510  0.27294686    -0.79400
O316        O  0.80329900  0.19798773  0.25953092    -0.79400
C317        C  0.79343289  0.17974304  0.27491156     1.10300
C318        C  0.78631768  0.30118666  0.25338022     1.10200
C319        C  0.79131094  0.26268295  0.20456904     1.10300
C320        C  0.79017925  0.22697613  0.32092876     1.10200
O321        O  0.72100704  0.20297230  0.31077471    -0.79400
O322        O  0.72008694  0.23640605  0.22114235    -0.79500
O323        O  0.75530986  0.18148100  0.23504478    -0.79400
O324        O  0.73033533  0.28765777  0.27429994    -0.79400
O325        O  0.71690731  0.28970476  0.23106409    -0.79400
O326        O  0.72085611  0.19934414  0.25527534    -0.79400
O327        O  0.73397073  0.24603541  0.31275047    -0.79400
O328        O  0.75508600  0.22156346  0.19966273    -0.79400
Co329      Co  0.74519209  0.21254160  0.28322169     1.51500
Co330      Co  0.74265763  0.26343967  0.23809321     1.51700
Co331      Co  0.77954267  0.21307402  0.23044111     1.51600
Co332      Co  0.76310381  0.26517932  0.28961265     1.51500
O333        O  0.76378275  0.23720199  0.25873065    -1.41300
C334        C  0.71931866  0.22628279  0.32115787     1.10200
C335        C  0.73006166  0.22505778  0.20086271     1.10300
C336        C  0.73037564  0.18206391  0.23937544     1.10200
C337        C  0.71417647  0.29674653  0.25561380     1.10200
O338        O  0.29979773  0.72497763  0.20894127    -0.79400
O339        O  0.20735407  0.72002461  0.24934136    -0.79400
O340        O  0.26580272  0.73408492  0.29935596    -0.79400
O341        O  0.22316797  0.75692588  0.18760627    -0.79400
O342        O  0.22234453  0.72388259  0.30520254    -0.79500
O343        O  0.24419148  0.72215776  0.20483710    -0.79400
O344        O  0.18753111  0.75406436  0.22782788    -0.79400
O345        O  0.28529676  0.71959153  0.25033499    -0.79400
C346        C  0.30253905  0.71401565  0.23203152     1.10300
C347        C  0.18833121  0.72941254  0.23482884     1.10200
C348        C  0.24684873  0.72204552  0.31260350     1.10300
C349        C  0.22778827  0.73194364  0.18785212     1.10200
O350        O  0.27015409  0.77133142  0.19110469    -0.79400
O351        O  0.23543359  0.77410114  0.29986432    -0.79500
O352        O  0.31302674  0.75851341  0.27561228    -0.79400
O353        O  0.20589139  0.80234356  0.25058023    -0.79400
O354        O  0.19292270  0.76795982  0.27632717    -0.79400
O355        O  0.30065712  0.77220796  0.23486777    -0.79400
O356        O  0.24614884  0.80480918  0.20739949    -0.79400
O357        O  0.27078326  0.79201893  0.28296347    -0.79400
Co358      Co  0.27070153  0.74630764  0.22207011     1.51500
Co359      Co  0.22559986  0.74547558  0.27369602     1.51700
Co360      Co  0.27640669  0.75692073  0.26532475     1.51600
Co361      Co  0.21709800  0.77976783  0.21971041     1.51500
O362        O  0.24274849  0.76191224  0.24429573    -1.41300
C363        C  0.26463811  0.79614904  0.19191820     1.10200
C364        C  0.25213916  0.79262878  0.29968923     1.10300
C365        C  0.31811736  0.77130857  0.25399589     1.10200
C366        C  0.19134545  0.79260407  0.26935104     1.10200
C367        C  0.08151467  0.80907906  0.32354912    -0.01300
C368        C  0.09709307  0.83173904  0.31727687     0.07300
C369        C  0.08447188  0.85679793  0.31476747    -0.07200
C370        C  0.05668587  0.85901881  0.31601790     0.04800
C371        C  0.04138704  0.83613773  0.32108541    -0.14500
C372        C  0.05409154  0.81174223  0.32632040    -0.07800
C373        C  0.12512275  0.82858588  0.30827059     0.05700
C374        C  0.13171777  0.83692188  0.28211524    -0.08900
C375        C  0.15493721  0.82771964  0.26970174     0.00700
C376        C  0.17147345  0.80922362  0.28336141     0.00600
C377        C  0.16644979  0.80349755  0.31053612    -0.12500
C378        C  0.14388714  0.81364250  0.32325189     0.01000
C379        C  0.15989129  0.83569057  0.24227612     0.40300
C380        C  0.13963844  0.80732845  0.35123206     0.37000
C381        C  0.09229484  0.78226981  0.32348221     0.36700
C382        C  0.04417831  0.88423508  0.30940934     0.37400
N383        N  0.16383699  0.84230643  0.22034708    -0.43400
N384        N  0.13588291  0.80211804  0.37355599    -0.43800
N385        N  0.03412583  0.90439793  0.30391368    -0.41200
N386        N  0.10078871  0.76075449  0.32335517    -0.42600
H387        H  0.04216337  0.79400522  0.32941530     0.13600
H388        H  0.09614448  0.87421767  0.30963842     0.10100
H389        H  0.11773318  0.84897883  0.27059185     0.11100
H390        H  0.17971450  0.79023066  0.32161791     0.16900
C391        C  0.84610502  0.06363816  0.31702913    -0.01300
C392        C  0.83672580  0.08730354  0.32903509     0.07300
C393        C  0.82645913  0.08582877  0.35518361    -0.07200
C394        C  0.82189298  0.06099514  0.36759594     0.04800
C395        C  0.82761287  0.03726663  0.35374522    -0.14500
C396        C  0.84157443  0.03885685  0.32947151    -0.07800
C397        C  0.83030951  0.11138676  0.31231640     0.05700
C398        C  0.81103408  0.10836327  0.29233174    -0.08900
C399        C  0.80044616  0.13034972  0.27856075     0.00700
C400        C  0.80928323  0.15637616  0.28431796     0.00600
C401        C  0.82982440  0.15945007  0.30318601    -0.12500
C402        C  0.84016920  0.13717162  0.31742025     0.01000
C403        C  0.77959990  0.12540680  0.25939182     0.40300
C404        C  0.86042076  0.14119627  0.33742697     0.37000
C405        C  0.85795879  0.06419125  0.29069836     0.36700
C406        C  0.80955613  0.06016752  0.39369293     0.37400
N407        N  0.76292177  0.12051632  0.24428265    -0.43400
N408        N  0.87674930  0.14440107  0.35341320    -0.43800
N409        N  0.79988949  0.05943049  0.41472398    -0.41200
N410        N  0.86740800  0.06468157  0.26956407    -0.42600
H411        H  0.84620336  0.02071639  0.31872302     0.13600
H412        H  0.81951307  0.10386228  0.36476626     0.10100
H413        H  0.80314182  0.08867660  0.28840865     0.11100
H414        H  0.83662572  0.17931086  0.30797871     0.16900
C415        C  0.81158968  0.18353088  0.37981158    -0.01300
C416        C  0.82923531  0.20006363  0.39372701     0.07300
C417        C  0.83660008  0.22457186  0.38209087    -0.07200
C418        C  0.82541778  0.23343573  0.35763468     0.04800
C419        C  0.80659097  0.21745182  0.34426426    -0.14500
C420        C  0.80075405  0.19210109  0.35533248    -0.07800
C421        C  0.83673736  0.19404147  0.42206322     0.05700
C422        C  0.86240489  0.18471664  0.42858108    -0.08900
C423        C  0.87009519  0.18080619  0.45554859     0.00700
C424        C  0.85190244  0.18623436  0.47628347     0.00600
C425        C  0.82588277  0.19420704  0.46950839    -0.12500
C426        C  0.81828293  0.19833249  0.44282835     0.01000
C427        C  0.89693686  0.17242487  0.46153906     0.40300
C428        C  0.79182497  0.20838744  0.43728198     0.37000
C429        C  0.80294536  0.15842136  0.39116623     0.36700
C430        C  0.83253653  0.25954697  0.34768053     0.37400
N431        N  0.91841504  0.16555488  0.46645150    -0.43400
N432        N  0.77068662  0.21650765  0.43275725    -0.43800
N433        N  0.83821379  0.28051932  0.33973529    -0.41200
N434        N  0.79579118  0.13847673  0.40045273    -0.42600
H435        H  0.78663301  0.17921380  0.34547647     0.13600
H436        H  0.85000346  0.23747345  0.39289787     0.10100
H437        H  0.87658774  0.18114161  0.41265217     0.11100
H438        H  0.81175969  0.19859203  0.48532162     0.16900
C439        C  0.21686449  0.85779086  0.41173136    -0.01300
C440        C  0.21181196  0.83703542  0.39363867     0.07300
C441        C  0.19381128  0.81701405  0.40089965    -0.07200
C442        C  0.18282887  0.81603111  0.42666921     0.04800
C443        C  0.18979927  0.83541640  0.44572251    -0.14500
C444        C  0.20554138  0.85705880  0.43748932    -0.07800
C445        C  0.22716203  0.83354574  0.36842288     0.05700
C446        C  0.25082662  0.81856074  0.36940610    -0.08900
C447        C  0.26212433  0.80832003  0.34590193     0.00700
C448        C  0.24958245  0.81287712  0.32093752     0.00600
C449        C  0.22770168  0.83047059  0.31976362    -0.12500
C450        C  0.21641713  0.84077077  0.34329403     0.01000
C451        C  0.28505776  0.79096959  0.34814579     0.40300
C452        C  0.19278077  0.85717494  0.34150098     0.37000
C453        C  0.23528242  0.87872810  0.40505241     0.36700
C454        C  0.16670172  0.79337515  0.43397696     0.37400
N455        N  0.30351100  0.77715601  0.34991923    -0.43400
N456        N  0.17383303  0.87035453  0.34032771    -0.43800
N457        N  0.15385890  0.77510033  0.43962129    -0.41200
N458        N  0.25013627  0.89546930  0.39970048    -0.42600
H459        H  0.21152516  0.87171302  0.45212401     0.13600
H460        H  0.18990703  0.80099126  0.38702732     0.10100
H461        H  0.25932867  0.81314671  0.38871304     0.11100
H462        H  0.21805498  0.83433668  0.30067776     0.16900
C463        C  0.22921479  0.07373931  0.65155957    -0.01300
C464        C  0.21519416  0.08391887  0.67381669     0.07300
C465        C  0.19414980  0.06870534  0.68444138    -0.07200
C466        C  0.18836052  0.04313939  0.67461517     0.04800
C467        C  0.20337173  0.03255041  0.65321700    -0.14500
C468        C  0.22295070  0.04865406  0.64134648    -0.07800
C469        C  0.22286811  0.10985708  0.68650432     0.05700
C470        C  0.22516934  0.13296016  0.67038919    -0.08900
C471        C  0.23373429  0.15723943  0.68110722     0.00700
C472        C  0.23950605  0.15917034  0.70868310     0.00600
C473        C  0.23756394  0.13610920  0.72480990    -0.12500
C474        C  0.22924514  0.11169619  0.71410970     0.01000
C475        C  0.23803104  0.17948933  0.66311805     0.40300
C476        C  0.22751521  0.08891035  0.73198077     0.37000
C477        C  0.25139142  0.08772489  0.63980020     0.36700
C478        C  0.16821633  0.02763833  0.68807592     0.37400
N479        N  0.24211819  0.19705976  0.64850994    -0.43400
N480        N  0.22592432  0.07077041  0.74643104    -0.43800
N481        N  0.15207751  0.01521204  0.69889325    -0.41200
N482        N  0.26913950  0.09889271  0.63028002    -0.42600
H483        H  0.23447196  0.04099476  0.62471329     0.13600
H484        H  0.18274218  0.07645803  0.70109425     0.10100
H485        H  0.22045024  0.13200533  0.64920396     0.11100
H486        H  0.24181411  0.13735341  0.74607898     0.16900
C487        C  0.09018597  0.18339253  0.67510229    -0.01300
C488        C  0.08585567  0.21043360  0.66804121     0.07300
C489        C  0.06054824  0.21842222  0.65894282    -0.07200
C490        C  0.03930038  0.20027127  0.65870636     0.04800
C491        C  0.04326946  0.17378526  0.66803774    -0.14500
C492        C  0.06901373  0.16544557  0.67507243    -0.07800
C493        C  0.10687371  0.23055607  0.67343388     0.05700
C494        C  0.13063025  0.22966074  0.65871841    -0.08900
C495        C  0.15367143  0.24206894  0.66826788     0.00700
C496        C  0.15309274  0.25575407  0.69281347     0.00600
C497        C  0.12868848  0.25911737  0.70592728    -0.12500
C498        C  0.10564299  0.24669571  0.69646920     0.01000
C499        C  0.17802841  0.23920701  0.65336741     0.40300
C500        C  0.08172604  0.24854480  0.71231412     0.37000
C501        C  0.11569620  0.17411366  0.68486165     0.36700
C502        C  0.01323409  0.20991043  0.65107031     0.37400
N503        N  0.19740670  0.23713233  0.64110200    -0.43400
N504        N  0.06262754  0.25008362  0.72511443    -0.43800
N505        N  0.99242484  0.21777149  0.64482085    -0.41200
N506        N  0.13615940  0.16678229  0.69270946    -0.42600
H507        H  0.07216580  0.14527807  0.68257879     0.13600
H508        H  0.05708397  0.23913306  0.65338576     0.10100
H509        H  0.13169207  0.21752802  0.64086886     0.11100
H510        H  0.12812125  0.26942617  0.72493955     0.16900
C511        C  0.01440748  0.86609553  0.39427028    -0.01300
C512        C  0.99805426  0.88901933  0.39639571     0.07300
C513        C  0.97813190  0.89325862  0.37697096    -0.07200
C514        C  0.97490815  0.87579041  0.35538327     0.04800
C515        C  0.99102911  0.85272877  0.35333534    -0.14500
C516        C  0.01023195  0.84787938  0.37343167    -0.07800
C517        C  0.00234766  0.90999692  0.41722090     0.05700
C518        C  0.00666059  0.93643551  0.40870498    -0.08900
C519        C  0.00899549  0.95724716  0.42714635     0.00700
C520        C  0.00736173  0.95190155  0.45499439     0.00600
C521        C  0.00365936  0.92538968  0.46359244    -0.12500
C522        C  0.00087328  0.90459654  0.44508347     0.01000
C523        C  0.01309420  0.98390963  0.41683839     0.40300
C524        C  0.99519018  0.87817937  0.45520606     0.37000
C525        C  0.03709048  0.86199175  0.41165447     0.36700
C526        C  0.95666387  0.88348181  0.33431729     0.37400
N527        N  0.01646652  0.00519534  0.40834630    -0.43400
N528        N  0.99072055  0.85698155  0.46335460    -0.43800
N529        N  0.94215828  0.88991096  0.31738075    -0.41200
N530        N  0.05540768  0.85879366  0.42541419    -0.42600
H531        H  0.02299896  0.83052370  0.37201613     0.13600
H532        H  0.96577021  0.91099461  0.37802942     0.10100
H533        H  0.00791896  0.94090051  0.38741926     0.11100
H534        H  0.00206117  0.92106953  0.48487040     0.16900
C535        C  0.93502758  0.00286308  0.42142545    -0.01300
C536        C  0.91701449  0.98183503  0.42602253     0.07300
C537        C  0.92150786  0.96433079  0.44777926    -0.07200
C538        C  0.94354423  0.96750734  0.46471292     0.04800
C539        C  0.96193354  0.98808231  0.45965057    -0.14500
C540        C  0.95718056  0.00585462  0.43820831    -0.07800
C541        C  0.89217163  0.97952534  0.40985032     0.05700
C542        C  0.89363800  0.97394860  0.38226471    -0.08900
C543        C  0.87076734  0.97501788  0.36599969     0.00700
C544        C  0.84609494  0.98180956  0.37732792     0.00600
C545        C  0.84444807  0.98598393  0.40505683    -0.12500
C546        C  0.86711744  0.98492692  0.42131883     0.01000
C547        C  0.87308032  0.96995608  0.33771452     0.40300
C548        C  0.86441787  0.99114863  0.44939778     0.37000
C549        C  0.93045253  0.02234520  0.40036220     0.36700
C550        C  0.94612599  0.95045483  0.48808796     0.37400
N551        N  0.87502326  0.96578746  0.31502393    -0.43400
N552        N  0.86231768  0.99613607  0.47190171    -0.43800
N553        N  0.94816688  0.93705477  0.50702720    -0.41200
N554        N  0.92658976  0.03794003  0.38350246    -0.42600
H555        H  0.97069888  0.02226885  0.43476413     0.13600
H556        H  0.90737937  0.94859666  0.45192901     0.10100
H557        H  0.91278556  0.96955431  0.37332925     0.11100
H558        H  0.82540179  0.99128722  0.41375549     0.16900
C559        C  0.91965316  0.04742773  0.51035970    -0.01300
C560        C  0.92519497  0.07400501  0.50256608     0.07300
C561        C  0.94983585  0.07955081  0.49058123    -0.07200
C562        C  0.96912840  0.05954810  0.48733311     0.04800
C563        C  0.96410313  0.03324559  0.49614193    -0.14500
C564        C  0.93884239  0.02723641  0.50655140    -0.07800
C565        C  0.90715610  0.09696761  0.50888968     0.05700
C566        C  0.91699908  0.11686598  0.52567728    -0.08900
C567        C  0.90245119  0.14019065  0.53045500     0.00700
C568        C  0.87702028  0.14396839  0.51883268     0.00600
C569        C  0.86682908  0.12395257  0.50230893    -0.12500
C570        C  0.88170368  0.10058572  0.49719883     0.01000
C571        C  0.91504777  0.16082327  0.54578966     0.40300
C572        C  0.87093491  0.08119189  0.47907660     0.37000
C573        C  0.89529285  0.04074928  0.52402234     0.36700
C574        C  0.99414703  0.06649853  0.47510488     0.37400
N575        N  0.92547081  0.17737317  0.55780698    -0.43400
N576        N  0.86224561  0.06561150  0.46458687    -0.43800
N577        N  0.01422887  0.07197535  0.46529172    -0.41200
N578        N  0.87579889  0.03544646  0.53508021    -0.42600
H579        H  0.93461974  0.00700734  0.51298650     0.13600
H580        H  0.95427928  0.09982485  0.48436532     0.10100
H581        H  0.93661255  0.11449596  0.53448129     0.11100
H582        H  0.84751257  0.12683374  0.49307409     0.16900
C583        C  0.02316442  0.09548481  0.61813009    -0.01300
C584        C  0.00465162  0.09688026  0.59691868     0.07300
C585        C  0.98523511  0.11723969  0.59706298    -0.07200
C586        C  0.98394505  0.13572606  0.61818172     0.04800
C587        C  0.00208820  0.13393849  0.63973613    -0.14500
C588        C  0.02175991  0.11378508  0.63913676    -0.07800
C589        C  0.00482982  0.07655739  0.57516278     0.05700
C590        C  0.98630980  0.05576633  0.57603538    -0.08900
C591        C  0.98706963  0.03510421  0.55721535     0.00700
C592        C  0.00607136  0.03545600  0.53631138     0.00600
C593        C  0.02466272  0.05624299  0.53555455    -0.12500
C594        C  0.02436102  0.07647174  0.55486081     0.01000
C595        C  0.96907063  0.01304683  0.56067754     0.40300
C596        C  0.04447915  0.09680622  0.55368535     0.37000
C597        C  0.04322166  0.07476321  0.61933846     0.36700
C598        C  0.96399480  0.15643486  0.61737060     0.37400
N599        N  0.95464205  0.99538288  0.56364389    -0.43400
N600        N  0.06071484  0.11302799  0.55289586    -0.43800
N601        N  0.94807665  0.17318269  0.61679691    -0.41200
N602        N  0.05936658  0.05823565  0.62036813    -0.42600
H603        H  0.03553322  0.11167212  0.65575076     0.13600
H604        H  0.97097428  0.11855486  0.58078336     0.10100
H605        H  0.97173836  0.05522919  0.59203389     0.11100
H606        H  0.03957129  0.05655948  0.51987313     0.16900
C607        C  0.06371811  0.99454568  0.58190223    -0.01300
C608        C  0.09075308  0.99870956  0.57511875     0.07300
C609        C  0.09690772  0.00305764  0.54784882    -0.07200
C610        C  0.07701539  0.00397203  0.52805745     0.04800
C611        C  0.05055970  0.99747200  0.53463440    -0.14500
C612        C  0.04430658  0.99284349  0.56171820    -0.07800
C613        C  0.11278858  0.99804387  0.59580059     0.05700
C614        C  0.11336791  0.97776575  0.61552193    -0.08900
C615        C  0.13392842  0.97578053  0.63460493     0.00700
C616        C  0.15647939  0.99258854  0.63277473     0.00600
C617        C  0.15537556  0.01343934  0.61342300    -0.12500
C618        C  0.13368869  0.01679037  0.59588550     0.01000
C619        C  0.12996707  0.95738714  0.65658433     0.40300
C620        C  0.13333980  0.04007766  0.57857325     0.37000
C621        C  0.05493792  0.99340714  0.60941954     0.36700
C622        C  0.08394927  0.01385669  0.50175266     0.37400
N623        N  0.12556747  0.94280151  0.67414884    -0.43400
N624        N  0.13313249  0.05879942  0.56478836    -0.43800
N625        N  0.08976137  0.02266492  0.48105993    -0.41200
N626        N  0.04779860  0.99273353  0.63146007    -0.42600
H627        H  0.02393259  0.98858259  0.56721351     0.13600
H628        H  0.11733260  0.00625415  0.54187399     0.10100
H629        H  0.09756855  0.96318925  0.61617543     0.11100
H630        H  0.17175305  0.02714401  0.61132888     0.16900
C631        C  0.07549756  0.91880230  0.51557897    -0.01300
C632        C  0.09432542  0.91785978  0.49465838     0.07300
C633        C  0.09160014  0.93585063  0.47308096    -0.07200
C634        C  0.07082064  0.95473784  0.47221022     0.04800
C635        C  0.05192535  0.95583407  0.49322659    -0.14500
C636        C  0.05453555  0.93750921  0.51465174    -0.07800
C637        C  0.11728768  0.89866787  0.49515887     0.05700
C638        C  0.11271612  0.87140616  0.49113326    -0.08900
C639        C  0.13383297  0.85290780  0.49131543     0.00700
C640        C  0.16018201  0.86148775  0.49544890     0.00600
C641        C  0.16478473  0.88865903  0.49988586    -0.12500
C642        C  0.14362670  0.90722966  0.49964588     0.01000
C643        C  0.12794239  0.82499141  0.48829327     0.40300
C644        C  0.14919911  0.93494658  0.50457649     0.37000
C645        C  0.07788687  0.90138317  0.53867840     0.36700
C646        C  0.07051003  0.97357500  0.45018258     0.37400
N647        N  0.12306196  0.80259256  0.48613789    -0.43400
N648        N  0.15341485  0.95722469  0.50854343    -0.43800
N649        N  0.07132971  0.98865765  0.43248372    -0.41200
N650        N  0.07993451  0.88748359  0.55725064    -0.42600
H651        H  0.04027381  0.93805631  0.53091006     0.13600
H652        H  0.10608142  0.93538183  0.45699095     0.10100
H653        H  0.09257090  0.86456500  0.48791667     0.11100
H654        H  0.18492425  0.89531265  0.50341985     0.16900
C655        C  0.70094529  0.25209152  0.38874876    -0.01300
C656        C  0.67292623  0.25405369  0.38714518     0.07300
C657        C  0.66003227  0.24381055  0.36437430    -0.07200
C658        C  0.67461005  0.23229530  0.34337038     0.04800
C659        C  0.70255281  0.23157911  0.34469557    -0.14500
C660        C  0.71535896  0.24120713  0.36756212    -0.07800
C661        C  0.65711129  0.26562694  0.40963881     0.05700
C662        C  0.66355879  0.29099747  0.41956352    -0.08900
C663        C  0.65355797  0.29987062  0.44424742     0.00700
C664        C  0.63598215  0.28351360  0.45901828     0.00600
C665        C  0.62708274  0.25975482  0.44728279    -0.12500
C666        C  0.63765137  0.25054347  0.42317565     0.01000
C667        C  0.66361009  0.32451281  0.45479995     0.40300
C668        C  0.62992429  0.22441052  0.41422506     0.37000
C669        C  0.71556271  0.26096660  0.41191562     0.36700
C670        C  0.66065962  0.22230601  0.32029358     0.37400
N671        N  0.67177472  0.34436100  0.46299929    -0.43400
N672        N  0.62368299  0.20347432  0.40707708    -0.43800
N673        N  0.64949785  0.21409505  0.30186219    -0.41200
N674        N  0.72740681  0.26814039  0.43036384    -0.42600
H675        H  0.73692356  0.24085213  0.36853393     0.13600
H676        H  0.63857036  0.24510893  0.36284638     0.10100
H677        H  0.67793021  0.30313430  0.40886800     0.11100
H678        H  0.61317905  0.24719748  0.45813534     0.16900
C679        C  0.31836497  0.40710978  0.65649251    -0.01300
C680        C  0.29414991  0.39334230  0.65249153     0.07300
C681        C  0.27434824  0.40581187  0.63680460    -0.07200
C682        C  0.27704172  0.43226705  0.62812469     0.04800
C683        C  0.29886828  0.44745482  0.63685273    -0.14500
C684        C  0.32027177  0.43418288  0.64930187    -0.07800
C685        C  0.28711548  0.36890486  0.66851941     0.05700
C686        C  0.29188132  0.36922221  0.69622752    -0.08900
C687        C  0.28331340  0.34866613  0.71316119     0.00700
C688        C  0.26845776  0.32709351  0.70269309     0.00600
C689        C  0.26369499  0.32667548  0.67488162    -0.12500
C690        C  0.27310729  0.34702672  0.65781499     0.01000
C691        C  0.28997715  0.35098347  0.74124735     0.40300
C692        C  0.26843356  0.34465867  0.62938739     0.37000
C693        C  0.34101772  0.39439936  0.66920502     0.36700
C694        C  0.25647294  0.44382220  0.61134502     0.37400
N695        N  0.29546294  0.35304697  0.76367641    -0.43400
N696        N  0.26453161  0.34274554  0.60661811    -0.43800
N697        N  0.24010867  0.45301399  0.59771001    -0.41200
N698        N  0.35928390  0.38436159  0.67932033    -0.42600
H699        H  0.33763155  0.44532853  0.65532189     0.13600
H700        H  0.25578988  0.39574437  0.63294834     0.10100
H701        H  0.30174791  0.38620230  0.70502817     0.11100
H702        H  0.25275271  0.31025601  0.66632651     0.16900
C703        C  0.42501902  0.68098080  0.26159977    -0.01300
C704        C  0.40191978  0.66721711  0.26955947     0.07300
C705        C  0.40361611  0.64999518  0.29199673    -0.07200
C706        C  0.42554588  0.65069713  0.30946172     0.04800
C707        C  0.44717572  0.66750865  0.30350721    -0.14500
C708        C  0.44746581  0.68060062  0.27831986    -0.07800
C709        C  0.37497242  0.67535479  0.25926042     0.05700
C710        C  0.36901756  0.67571254  0.23159360    -0.08900
C711        C  0.34517617  0.68726818  0.22179490     0.00700
C712        C  0.32625080  0.69762361  0.23993072     0.00600
C713        C  0.33170880  0.69559894  0.26754690    -0.12500
C714        C  0.35579264  0.68554591  0.27718725     0.01000
C715        C  0.34100237  0.68882787  0.19319541     0.40300
C716        C  0.36116348  0.68848981  0.30549630     0.37000
C717        C  0.42527892  0.69809304  0.23811615     0.36700
C718        C  0.42355386  0.63629055  0.33450001     0.37400
N719        N  0.33766121  0.69021396  0.17025549    -0.43400
N720        N  0.36557029  0.69105987  0.32810028    -0.43800
N721        N  0.42087439  0.62436108  0.35428752    -0.41200
N722        N  0.42547611  0.71172964  0.21924064    -0.42600
H723        H  0.46408677  0.69333525  0.27320001     0.13600
H724        H  0.38629404  0.63851282  0.29774809     0.10100
H725        H  0.38344832  0.66791131  0.21754650     0.11100
H726        H  0.31790700  0.70383938  0.28196235     0.16900
C727        C  0.66452788  0.40539256  0.29894097    -0.01300
C728        C  0.64976390  0.38763637  0.28292814     0.07300
C729        C  0.62539948  0.39625168  0.27198731    -0.07200
C730        C  0.61713640  0.42285570  0.27442403     0.04800
C731        C  0.63272276  0.44083486  0.28907728    -0.14500
C732        C  0.65558204  0.43158533  0.30230491    -0.07800
C733        C  0.66111882  0.36134229  0.27520256     0.05700
C734        C  0.66948797  0.34360962  0.29542865    -0.08900
C735        C  0.68590008  0.32182443  0.28960670     0.00700
C736        C  0.69359375  0.31689658  0.26274388     0.00600
C737        C  0.68276360  0.33310383  0.24224150    -0.12500
C738        C  0.66692915  0.35531841  0.24822140     0.01000
C739        C  0.69526309  0.30594471  0.31202179     0.40300
C740        C  0.65863243  0.37260928  0.22637908     0.37000
C741        C  0.69037663  0.39827120  0.30960067     0.36700
C742        C  0.59374398  0.43184862  0.26008934     0.37400
N743        N  0.70270091  0.29390052  0.33049203    -0.43400
N744        N  0.65195189  0.38637192  0.20881397    -0.43800
N745        N  0.57508362  0.43916499  0.24850557    -0.41200
N746        N  0.71113717  0.39258883  0.31799035    -0.42600
H747        H  0.66801647  0.44562363  0.31289096     0.13600
H748        H  0.61377709  0.38267775  0.25999142     0.10100
H749        H  0.66452506  0.34780947  0.31612452     0.11100
H750        H  0.68799732  0.32949137  0.22151218     0.16900
C751        C  0.27655828  0.65102138  0.42478171    -0.01300
C752        C  0.28921891  0.66981625  0.40799632     0.07300
C753        C  0.31320477  0.68112545  0.41662920    -0.07200
C754        C  0.32306461  0.67608680  0.44259287     0.04800
C755        C  0.30883136  0.65947036  0.46041155    -0.14500
C756        C  0.28633333  0.64608780  0.45077110    -0.07800
C757        C  0.27644267  0.68025673  0.38287731     0.05700
C758        C  0.25342539  0.69626297  0.38474270    -0.08900
C759        C  0.24258233  0.70920410  0.36199455     0.00700
C760        C  0.25484918  0.70619459  0.33674953     0.00600
C761        C  0.27731754  0.68943332  0.33484801    -0.12500
C762        C  0.28802215  0.67643996  0.35751488     0.01000
C763        C  0.22015134  0.72693875  0.36547507     0.40300
C764        C  0.31080030  0.65911729  0.35432683     0.37000
C765        C  0.25290167  0.63744221  0.41612415     0.36700
C766        C  0.34597502  0.69071066  0.45156239     0.37400
N767        N  0.20224642  0.74122394  0.36840493    -0.43400
N768        N  0.32893511  0.64504039  0.35186595    -0.43800
N769        N  0.36426973  0.70250184  0.45882408    -0.41200
N770        N  0.23403391  0.62643076  0.40909862    -0.42600
H771        H  0.27507688  0.63347788  0.46435137     0.13600
H772        H  0.32322372  0.69541690  0.40375694     0.10100
H773        H  0.24452371  0.69949813  0.40423711     0.11100
H774        H  0.28676675  0.68671387  0.31554955     0.16900
C775        C  0.34273790  0.29329146  0.67616914    -0.01300
C776        C  0.36870555  0.28401128  0.68168981     0.07300
C777        C  0.37212164  0.26275470  0.70003787    -0.07200
C778        C  0.35035168  0.25167865  0.71371361     0.04800
C779        C  0.32440525  0.26142307  0.70869476    -0.14500
C780        C  0.32092694  0.28172564  0.68937137    -0.07800
C781        C  0.39277921  0.29783842  0.67098943     0.05700
C782        C  0.39886162  0.32334928  0.68049672    -0.08900
C783        C  0.42416044  0.33437204  0.67653861     0.00700
C784        C  0.44395347  0.31982308  0.66284825     0.00600
C785        C  0.43674356  0.29579417  0.65055389    -0.12500
C786        C  0.41143277  0.28472384  0.65456362     0.01000
C787        C  0.43043540  0.35899918  0.68977886     0.40300
C788        C  0.40551709  0.25917486  0.64297865     0.37000
C789        C  0.33827857  0.31498258  0.65741630     0.36700
C790        C  0.35531576  0.23176687  0.73428347     0.37400
N791        N  0.43531955  0.37870088  0.70054931    -0.43400
N792        N  0.40065276  0.23875150  0.63361640    -0.43800
N793        N  0.35929358  0.21592325  0.75088059    -0.41200
N794        N  0.33513990  0.33240384  0.64231066    -0.42600
H795        H  0.30109642  0.28895702  0.68503131     0.13600
H796        H  0.39205615  0.25575320  0.70476877     0.10100
H797        H  0.38459434  0.33368162  0.69300275     0.11100
H798        H  0.45183295  0.28419156  0.64031997     0.16900
C799        C  0.41599337  0.56279442  0.47084509    -0.01300
C800        C  0.41593824  0.58037971  0.49283888     0.07300
C801        C  0.43598675  0.57741476  0.51238353    -0.07200
C802        C  0.45516436  0.55695283  0.51070664     0.04800
C803        C  0.45429611  0.53857009  0.48947627    -0.14500
C804        C  0.43525483  0.54250916  0.46915048    -0.07800
C805        C  0.39468180  0.60126089  0.49614193     0.05700
C806        C  0.36796136  0.59332123  0.49727315    -0.08900
C807        C  0.34735932  0.61206694  0.50017322     0.00700
C808        C  0.35313555  0.63946656  0.50216010     0.00600
C809        C  0.37980012  0.64750300  0.50167527    -0.12500
C810        C  0.40050313  0.62873191  0.49853937     0.01000
C811        C  0.32040748  0.60265926  0.50219757     0.40300
C812        C  0.42750158  0.63818294  0.49727288     0.37000
C813        C  0.39639117  0.56500660  0.44975940     0.36700
C814        C  0.47615872  0.55571196  0.53043212     0.37400
N815        N  0.29878451  0.59512694  0.50390474    -0.43400
N816        N  0.44919265  0.64564549  0.49626762    -0.43800
N817        N  0.49321584  0.55479414  0.54601047    -0.41200
N818        N  0.38056211  0.56660360  0.43295061    -0.42600
H819        H  0.43495108  0.52911497  0.45224185     0.13600
H820        H  0.43646185  0.59090516  0.52921107     0.10100
H821        H  0.36318291  0.57229341  0.49616917     0.11100
H822        H  0.38438250  0.66847815  0.50355691     0.16900
C823        C  0.43541733  0.48951364  0.57491555    -0.01300
C824        C  0.40827218  0.49054157  0.56717082     0.07300
C825        C  0.40245005  0.49363921  0.53967783    -0.07200
C826        C  0.42247648  0.49323073  0.52030441     0.04800
C827        C  0.44943021  0.49408366  0.52815947    -0.14500
C828        C  0.45541883  0.49312441  0.55567855    -0.07800
C829        C  0.38567020  0.48875034  0.58690112     0.05700
C830        C  0.38712078  0.50209593  0.61160819    -0.08900
C831        C  0.36585917  0.50177951  0.62979758     0.00700
C832        C  0.34112015  0.49127968  0.62199757     0.00600
C833        C  0.33978434  0.47745653  0.59767303    -0.12500
C834        C  0.36196601  0.47478847  0.58104507     0.01000
C835        C  0.37088750  0.51002215  0.65691070     0.40300
C836        C  0.35982845  0.45679394  0.55870288     0.37000
C837        C  0.44365012  0.48271702  0.60188679     0.36700
C838        C  0.41467969  0.48938161  0.49274756     0.37400
N839        N  0.37551655  0.51612008  0.67873239    -0.43400
N840        N  0.35794136  0.44228457  0.54091207    -0.43800
N841        N  0.40816222  0.48571103  0.47083468    -0.41200
N842        N  0.45046456  0.47703518  0.62338763    -0.42600
H843        H  0.47600301  0.49360660  0.56209781     0.13600
H844        H  0.38201286  0.49536640  0.53299105     0.10100
H845        H  0.40490725  0.51280545  0.61700945     0.11100
H846        H  0.32123476  0.46848221  0.59157978     0.16900
C847        C  0.47419253  0.62355048  0.39251233    -0.01300
C848        C  0.49156645  0.60164445  0.38884563     0.07300
C849        C  0.50766779  0.60136505  0.36575814    -0.07200
C850        C  0.50688524  0.62250897  0.34681630     0.04800
C851        C  0.48951999  0.64437584  0.35055095    -0.14500
C852        C  0.47380909  0.64475377  0.37390538    -0.07800
C853        C  0.49299181  0.57892512  0.40874936     0.05700
C854        C  0.48611855  0.55306899  0.40067736    -0.08900
C855        C  0.48579200  0.53155030  0.41908685     0.00700
C856        C  0.49292432  0.53550419  0.44621175     0.00600
C857        C  0.50003638  0.56132064  0.45413811    -0.12500
C858        C  0.50031895  0.58278363  0.43582775     0.01000
C859        C  0.47685574  0.50594593  0.40987444     0.40300
C860        C  0.50850823  0.60853988  0.44537478     0.37000
C861        C  0.45576090  0.62430910  0.41467525     0.36700
C862        C  0.52438728  0.62142544  0.32403245     0.37400
N863        N  0.46966740  0.48547372  0.40230885    -0.43400
N864        N  0.51492785  0.62917555  0.45319102    -0.43800
N865        N  0.53874825  0.62013626  0.30598943    -0.41200
N866        N  0.44094157  0.62486207  0.43238172    -0.42600
H867        H  0.46077708  0.66167239  0.37737956     0.13600
H868        H  0.52113742  0.58471466  0.36269387     0.10100
H869        H  0.48026016  0.54983101  0.38003983     0.11100
H870        H  0.50547341  0.56469360  0.47487357     0.16900
C871        C  0.54369730  0.46405572  0.40407724    -0.01300
C872        C  0.56317436  0.48337207  0.39845819     0.07300
C873        C  0.56633759  0.50475766  0.41601691    -0.07200
C874        C  0.55000177  0.50754161  0.43857962     0.04800
C875        C  0.52954899  0.48892794  0.44365050    -0.14500
C876        C  0.52707761  0.46698272  0.42644671    -0.07800
C877        C  0.57963567  0.48247467  0.37373718     0.05700
C878        C  0.56826863  0.49103500  0.34941240    -0.08900
C879        C  0.58357345  0.49253026  0.32603473     0.00700
C880        C  0.61073670  0.48554358  0.32675249     0.00600
C881        C  0.62199566  0.47616259  0.35082100    -0.12500
C882        C  0.60663108  0.47459246  0.37429735     0.01000
C883        C  0.57118001  0.50127578  0.30132334     0.40300
C884        C  0.61876639  0.46470301  0.39870702     0.37000
C885        C  0.54067017  0.44100391  0.38727417     0.36700
C886        C  0.55519134  0.52931316  0.45646185     0.37400
N887        N  0.56143887  0.50818384  0.28136979    -0.43400
N888        N  0.62835218  0.45664549  0.41831144    -0.43800
N889        N  0.55970870  0.54678821  0.47070674    -0.41200
N890        N  0.53843751  0.42245236  0.37386109    -0.42600
H891        H  0.51177482  0.45229156  0.43029486     0.13600
H892        H  0.58157090  0.51946896  0.41193343     0.10100
H893        H  0.54750001  0.49696704  0.34881634     0.11100
H894        H  0.64282494  0.47050928  0.35130647     0.16900
C895        C  0.53794425  0.40158883  0.48360166    -0.01300
C896        C  0.56580619  0.40565558  0.48601547     0.07300
C897        C  0.57481506  0.43205804  0.48867926    -0.07200
C898        C  0.55694138  0.45345344  0.49098842     0.04800
C899        C  0.52956674  0.44940787  0.48701552    -0.14500
C900        C  0.52042888  0.42342520  0.48303398    -0.07800
C901        C  0.58538178  0.38272821  0.48719109     0.05700
C902        C  0.58195235  0.36083217  0.47018965    -0.08900
C903        C  0.59532302  0.33657838  0.47486910     0.00700
C904        C  0.61622646  0.33499553  0.49402485     0.00600
C905        C  0.62261508  0.35851486  0.50774665    -0.12500
C906        C  0.60642892  0.38134150  0.50608259     0.01000
C907        C  0.58444586  0.31350793  0.46191614     0.40300
C908        C  0.61066251  0.40172991  0.52586201     0.37000
C909        C  0.52633553  0.37533372  0.48295285     0.36700
C910        C  0.56683763  0.47873975  0.50006603     0.37400
N911        N  0.57484610  0.29543610  0.45148886    -0.43400
N912        N  0.61404433  0.41791951  0.54186255    -0.43800
N913        N  0.57474462  0.49867631  0.50828083    -0.41200
N914        N  0.51698733  0.35432034  0.48225512    -0.42600
H915        H  0.49930728  0.42012364  0.48040127     0.13600
H916        H  0.59589929  0.43605397  0.48996494     0.10100
H917        H  0.56704519  0.36183822  0.45450697     0.11100
H918        H  0.63932666  0.35878574  0.52126788     0.16900
C919        C  0.51347051  0.43290357  0.57008512    -0.01300
C920        C  0.49294345  0.41400243  0.57358226     0.07300
C921        C  0.47183693  0.41434796  0.55504906    -0.07200
C922        C  0.47095815  0.43271815  0.53349772     0.04800
C923        C  0.49109567  0.45206906  0.53035126    -0.14500
C924        C  0.51229592  0.45168400  0.54884176    -0.07800
C925        C  0.49289918  0.39387193  0.59634097     0.05700
C926        C  0.49368654  0.40267945  0.62304495    -0.08900
C927        C  0.49298961  0.38449074  0.64474340     0.00700
C928        C  0.49096959  0.35685181  0.64017733     0.00600
C929        C  0.48999549  0.34791653  0.61363576    -0.12500
C930        C  0.49124741  0.36604367  0.59185257     0.01000
C931        C  0.49394091  0.39457315  0.67169688     0.40300
C932        C  0.49198306  0.35552119  0.56505007     0.37000
C933        C  0.53643877  0.43286540  0.58746317     0.36700
C934        C  0.44949577  0.43067237  0.51448616     0.37400
N935        N  0.49469621  0.40255557  0.69337008    -0.43400
N936        N  0.49268504  0.34714165  0.54353365    -0.43800
N937        N  0.43220080  0.42856359  0.49936410    -0.41200
N938        N  0.55492413  0.43279361  0.60130308    -0.42600
H939        H  0.52806311  0.46618090  0.54663143     0.13600
H940        H  0.45591817  0.40003737  0.55736082     0.10100
H941        H  0.49467116  0.42387791  0.62697912     0.11100
H942        H  0.48900536  0.32667498  0.60997410     0.16900
C943        C  0.83852042  0.28712598  0.08971993    -0.01300
C944        C  0.83559545  0.30810038  0.10814524     0.07300
C945        C  0.83491066  0.33457061  0.09824879    -0.07200
C946        C  0.83378903  0.34000663  0.07049842     0.04800
C947        C  0.83458723  0.31874147  0.05224060    -0.14500
C948        C  0.83844815  0.29265844  0.06223076    -0.07800
C949        C  0.82745485  0.30207665  0.13639563     0.05700
C950        C  0.84337601  0.28555610  0.15299426    -0.08900
C951        C  0.83294986  0.27341171  0.17631632     0.00700
C952        C  0.80623530  0.27829202  0.18370270     0.00600
C953        C  0.79164911  0.29740692  0.16863874    -0.12500
C954        C  0.80158902  0.30860978  0.14502102     0.01000
C955        C  0.84969056  0.25514585  0.19128455     0.40300
C956        C  0.78358570  0.32434023  0.12854846     0.37000
C957        C  0.83827415  0.25948384  0.09825064     0.36700
C958        C  0.82916651  0.36707231  0.06145871     0.37400
N959        N  0.86322508  0.24052267  0.20324165    -0.43400
N960        N  0.76911630  0.33680643  0.11531390    -0.43800
N961        N  0.82546101  0.38879118  0.05420766    -0.41200
N962        N  0.83787727  0.23736796  0.10513594    -0.42600
H963        H  0.83906120  0.27613787  0.04832424     0.13600
H964        H  0.83282681  0.35084607  0.11222521     0.10100
H965        H  0.86341504  0.28062473  0.14666593     0.11100
H966        H  0.77137420  0.30237778  0.17410865     0.16900
C967        C  0.06607703  0.30321037  0.83025918    -0.01300
C968        C  0.09062912  0.31000776  0.81847432     0.07300
C969        C  0.09294749  0.33482206  0.80539789    -0.07200
C970        C  0.07083890  0.35170872  0.80198507     0.04800
C971        C  0.04581520  0.34409487  0.81218257    -0.14500
C972        C  0.04412039  0.32052377  0.82756261    -0.07800
C973        C  0.11288880  0.29039735  0.81571031     0.05700
C974        C  0.10917152  0.26821842  0.79913148    -0.08900
C975        C  0.13093235  0.25306301  0.79028473     0.00700
C976        C  0.15692297  0.26034506  0.79759383     0.00600
C977        C  0.16040580  0.28057184  0.81645139    -0.12500
C978        C  0.13861869  0.29553088  0.82564045     0.01000
C979        C  0.12637307  0.23122135  0.77223735     0.40300
C980        C  0.14326963  0.31646256  0.84465883     0.37000
C981        C  0.06250924  0.27784518  0.84366582     0.36700
C982        C  0.07405407  0.37606158  0.78666055     0.37400
N983        N  0.12287830  0.21353876  0.75795327    -0.43400
N984        N  0.14729740  0.33292411  0.86020097    -0.43800
N985        N  0.07691996  0.39553725  0.77436776    -0.41200
N986        N  0.05955505  0.25741943  0.85423423    -0.42600
H987        H  0.02501717  0.31439311  0.83539629     0.13600
H988        H  0.11170280  0.34022293  0.79621802     0.10100
H989        H  0.08947036  0.26382899  0.79162163     0.11100
H990        H  0.18029354  0.28573782  0.82275643     0.16900
C991        C  0.83678706  0.40404755  0.18419216    -0.01300
C992        C  0.84427863  0.39163411  0.20874794     0.07300
C993        C  0.86295317  0.40445993  0.22493809    -0.07200
C994        C  0.87084925  0.43068513  0.21912387     0.04800
C995        C  0.85947288  0.44482327  0.19718368    -0.14500
C996        C  0.84410085  0.43062455  0.17875152    -0.07800
C997        C  0.82974523  0.36800193  0.22003411     0.05700
C998        C  0.84363747  0.34481848  0.22831804    -0.08900
C999        C  0.83026483  0.32315519  0.24044917     0.00700
C1000       C  0.80246956  0.32432726  0.24414032     0.00600
C1001       C  0.78879615  0.34766359  0.23627071    -0.12500
C1002       C  0.80212316  0.36949109  0.22500912     0.01000
C1003       C  0.84527646  0.29972463  0.24826574     0.40300
C1004       C  0.78715886  0.39377053  0.22008722     0.37000
C1005       C  0.82010367  0.39052796  0.16520820     0.36700
C1006       C  0.88895969  0.44358401  0.23726036     0.37400
N1007       N  0.85722360  0.28091873  0.25472497    -0.43400
N1008       N  0.77531695  0.41332571  0.21628803    -0.43800
N1009       N  0.90348443  0.45401044  0.25171927    -0.41200
N1010       N  0.80668874  0.37978378  0.14994426    -0.42600
H1011       H  0.83561291  0.44097938  0.16152271     0.13600
H1012       H  0.86970690  0.39485936  0.24333491     0.10100
H1013       H  0.86493981  0.34365316  0.22530827     0.11100
H1014       H  0.76748834  0.34900153  0.23930386     0.16900
C1015       C  0.07966196  0.67572873  0.17990172    -0.01300
C1016       C  0.09940700  0.66587670  0.19776362     0.07300
C1017       C  0.09430681  0.64237849  0.21229734    -0.07200
C1018       C  0.06931908  0.63024383  0.21132734     0.04800
C1019       C  0.04887743  0.64118402  0.19492377    -0.14500
C1020       C  0.05485365  0.66310224  0.17829537    -0.07800
C1021       C  0.12308685  0.68204130  0.20541287     0.05700
C1022       C  0.11854353  0.70730976  0.21633143    -0.08900
C1023       C  0.13940004  0.72258196  0.22634370     0.00700
C1024       C  0.16575252  0.71246333  0.22622429     0.00600
C1025       C  0.17042880  0.68704390  0.21549059    -0.12500
C1026       C  0.14942711  0.67197361  0.20483243     0.01000
C1027       C  0.13290076  0.74839360  0.23729478     0.40300
C1028       C  0.15548598  0.64674684  0.19251622     0.37000
C1029       C  0.08385969  0.69960867  0.16407390     0.36700
C1030       C  0.06477204  0.60757496  0.22878330     0.37400
N1031       N  0.12754793  0.76908532  0.24591637    -0.43400
N1032       N  0.16042904  0.62661466  0.18246810    -0.43800
N1033       N  0.06130291  0.58938851  0.24280495    -0.41200
N1034       N  0.08716659  0.71873743  0.15135572    -0.42600
H1035       H  0.03936685  0.67187468  0.16581846     0.13600
H1036       H  0.10917482  0.63469225  0.22618071     0.10100
H1037       H  0.09837579  0.71500760  0.21752791     0.11100
H1038       H  0.19060052  0.67934472  0.21458993     0.16900
C1039       C  0.14742390  0.41264227  0.82784100    -0.01300
C1040       C  0.17404339  0.40483554  0.82252900     0.07300
C1041       C  0.19236711  0.42479009  0.81585360    -0.07200
C1042       C  0.18418220  0.45128184  0.81169089     0.04800
C1043       C  0.15699134  0.45843061  0.81385221    -0.14500
C1044       C  0.13906905  0.43918757  0.82318550    -0.07800
C1045       C  0.18215705  0.37637383  0.81774367     0.05700
C1046       C  0.16913472  0.36274607  0.79723903    -0.08900
C1047       C  0.17969954  0.33923135  0.78651290     0.00700
C1048       C  0.20413794  0.32845067  0.79626499     0.00600
C1049       C  0.21599892  0.34080025  0.81844510    -0.12500
C1050       C  0.20533751  0.36461620  0.82905788     0.01000
C1051       C  0.16488058  0.32701327  0.76512661     0.40300
C1052       C  0.21889299  0.37707763  0.85108782     0.37000
C1053       C  0.12807379  0.39385701  0.83756893     0.36700
C1054       C  0.20381876  0.47034571  0.80284473     0.37400
N1055       N  0.15263846  0.31751005  0.74809261    -0.43400
N1056       N  0.22972799  0.38707064  0.86878848    -0.43800
N1057       N  0.21952183  0.48552356  0.79553620    -0.41200
N1058       N  0.11210548  0.37950540  0.84588157    -0.42600
H1059       H  0.11824205  0.44445995  0.82520097     0.13600
H1060       H  0.21281342  0.41931779  0.81166028     0.10100
H1061       H  0.15137620  0.37145361  0.78830268     0.11100
H1062       H  0.23441470  0.33274230  0.82654608     0.16900
C1063       C  0.15187836  0.67442184  0.09150555    -0.01300
C1064       C  0.17863922  0.68113416  0.09677120     0.07300
C1065       C  0.19602826  0.68405745  0.07501617    -0.07200
C1066       C  0.18651330  0.68391191  0.04859486     0.04800
C1067       C  0.15901469  0.68118960  0.04351236    -0.14500
C1068       C  0.14211246  0.67504711  0.06501574    -0.07800
C1069       C  0.18789949  0.69038981  0.12366665     0.05700
C1070       C  0.21032350  0.67855095  0.13600984    -0.08900
C1071       C  0.22289917  0.69055717  0.15810387     0.00700
C1072       C  0.21347232  0.71533369  0.16771552     0.00600
C1073       C  0.18998004  0.72600557  0.15644201    -0.12500
C1074       C  0.17732245  0.71398334  0.13476043     0.01000
C1075       C  0.24599675  0.67763800  0.16963625     0.40300
C1076       C  0.15476311  0.72766369  0.12289379     0.37000
C1077       C  0.13402681  0.66764141  0.11304769     0.36700
C1078       C  0.20502795  0.68901240  0.02706537     0.37400
N1079       N  0.26441484  0.66717715  0.17901686    -0.43400
N1080       N  0.13670916  0.73866873  0.11341539    -0.43800
N1081       N  0.21987877  0.69312076  0.00984221    -0.41200
N1082       N  0.11979387  0.66170765  0.13025009    -0.42600
H1083       H  0.12104633  0.67249220  0.06135669     0.13600
H1084       H  0.21674406  0.68866479  0.07869538     0.10100
H1085       H  0.21862230  0.66041567  0.12770150     0.11100
H1086       H  0.18184208  0.74456847  0.16397723     0.16900
C1087       C  0.04389842  0.50279858  0.90359292    -0.01300
C1088       C  0.07183966  0.50338122  0.90781101     0.07300
C1089       C  0.08094091  0.50221995  0.93455083    -0.07200
C1090       C  0.06316190  0.49978968  0.95621792     0.04800
C1091       C  0.03541391  0.50203043  0.95191977    -0.14500
C1092       C  0.02635057  0.50403806  0.92534750    -0.07800
C1093       C  0.09118674  0.50588940  0.88463239     0.05700
C1094       C  0.08451424  0.52292888  0.86308194    -0.08900
C1095       C  0.09864778  0.52262528  0.83893175     0.00700
C1096       C  0.12293192  0.50821244  0.83687400     0.00600
C1097       C  0.13145656  0.49364635  0.85965874    -0.12500
C1098       C  0.11537760  0.49123573  0.88271073     0.01000
C1099       C  0.08545734  0.53458096  0.81606942     0.40300
C1100       C  0.12351975  0.47211531  0.90298453     0.37000
C1101       C  0.03237870  0.49926860  0.87732168     0.36700
C1102       C  0.07404292  0.49301792  0.98217277     0.37400
N1103       N  0.07381923  0.54387237  0.79821609    -0.43400
N1104       N  0.13019820  0.45665606  0.91907361    -0.43800
N1105       N  0.08335148  0.48681644  0.00255017    -0.41200
N1106       N  0.02305718  0.49626397  0.85634909    -0.42600
H1107       H  0.00520795  0.50561233  0.92146888     0.13600
H1108       H  0.10203806  0.50276703  0.93873760     0.10100
H1109       H  0.06685993  0.53537989  0.86432887     0.11100
H1110       H  0.15019130  0.48293638  0.85909773     0.16900
C1111       C  0.05562475  0.58232894  0.97220482    -0.01300
C1112       C  0.07336945  0.58556646  0.99381970     0.07300
C1113       C  0.07270318  0.56721948  0.01523286    -0.07200
C1114       C  0.05436896  0.54618562  0.01560899     0.04800
C1115       C  0.03605382  0.54321113  0.99424015    -0.14500
C1116       C  0.03738018  0.56122719  0.97244233    -0.07800
C1117       C  0.09191244  0.60866971  0.99492497     0.05700
C1118       C  0.08197741  0.63347634  0.00305439    -0.08900
C1119       C  0.09837127  0.65596411  0.00362446     0.00700
C1120       C  0.12545505  0.65391259  0.99631890     0.00600
C1121       C  0.13546950  0.62910390  0.98814137    -0.12500
C1122       C  0.11889080  0.60654320  0.98737804     0.01000
C1123       C  0.08675566  0.68126519  0.01091968     0.40300
C1124       C  0.12962612  0.58157338  0.97801242     0.37000
C1125       C  0.05567033  0.60066883  0.94969902     0.36700
C1126       C  0.05530910  0.52753907  0.03784692     0.37400
N1127       N  0.07744708  0.70158380  0.01667472    -0.43400
N1128       N  0.13802899  0.56149728  0.97038734    -0.43800
N1129       N  0.05628967  0.51251788  0.05561240    -0.41200
N1130       N  0.05581125  0.61546786  0.93173265    -0.42600
H1131       H  0.02359974  0.55921212  0.95588210     0.13600
H1132       H  0.08641317  0.56949522  0.03182492     0.10100
H1133       H  0.06122404  0.63533661  0.00858876     0.11100
H1134       H  0.15605233  0.62750827  0.98203972     0.16900
C1135       C  0.99440977  0.54940402  0.08498920    -0.01300
C1136       C  0.99496415  0.57741962  0.08112506     0.07300
C1137       C  0.99379556  0.58748106  0.05467799    -0.07200
C1138       C  0.99239904  0.57018844  0.03263425     0.04800
C1139       C  0.99466802  0.54223101  0.03665416    -0.14500
C1140       C  0.99616021  0.53245668  0.06308519    -0.07800
C1141       C  0.99867122  0.59566570  0.10453245     0.05700
C1142       C  0.01770981  0.58837509  0.12384251    -0.08900
C1143       C  0.01833531  0.60037935  0.14892337     0.00700
C1144       C  0.00277681  0.62345816  0.15395085     0.00600
C1145       C  0.98611698  0.63302015  0.13314621    -0.12500
C1146       C  0.98286658  0.61859732  0.10925063     0.01000
C1147       C  0.03181987  0.58555018  0.16983961     0.40300
C1148       C  0.96157225  0.62634345  0.09132399     0.37000
C1149       C  0.99087747  0.53730224  0.11117429     0.36700
C1150       C  0.98743385  0.58165823  0.00644205     0.37400
N1151       N  0.04215007  0.57237424  0.18598624    -0.43400
N1152       N  0.94426542  0.63243248  0.07717282    -0.43800
N1153       N  0.98305770  0.59111926  0.98561563    -0.41200
N1154       N  0.98782416  0.52755965  0.13207468    -0.42600
H1155       H  0.99804383  0.51118971  0.06672093     0.13600
H1156       H  0.99387669  0.60884259  0.05115151     0.10100
H1157       H  0.03050774  0.57126247  0.12033015     0.11100
H1158       H  0.97413718  0.65072382  0.13624975     0.16900
C1159       C  0.94067638  0.47528242  0.07715162    -0.01300
C1160       C  0.92074067  0.49453804  0.08207816     0.07300
C1161       C  0.91794352  0.51620580  0.06413573    -0.07200
C1162       C  0.93480276  0.51900628  0.04181752     0.04800
C1163       C  0.95490332  0.49975937  0.03700925    -0.14500
C1164       C  0.95735122  0.47795729  0.05483881    -0.07800
C1165       C  0.90369771  0.49305337  0.10659239     0.05700
C1166       C  0.91586892  0.49444982  0.13189116    -0.08900
C1167       C  0.90079811  0.49327242  0.15546413     0.00700
C1168       C  0.87294385  0.49081379  0.15414007     0.00600
C1169       C  0.86062059  0.48943702  0.12894454    -0.11900
C1170       C  0.87576433  0.49036272  0.10523521     0.01000
C1171       C  0.91419109  0.49550359  0.18092453     0.40300
C1172       C  0.86233367  0.48806370  0.07978592     0.37000
C1173       C  0.94446958  0.45254100  0.09476589     0.36700
C1174       C  0.93099554  0.54179823  0.02430059     0.37400
N1175       N  0.92493202  0.49729504  0.20135241    -0.43400
N1176       N  0.85163255  0.48616111  0.05934574    -0.43800
N1177       N  0.92759532  0.56014776  0.01040785    -0.41200
N1178       N  0.94758704  0.43437147  0.10895594    -0.42600
H1179       H  0.97287594  0.46324538  0.05161319     0.13600
H1180       H  0.90285504  0.53123798  0.06787164     0.10100
H1181       H  0.93724332  0.49675948  0.13320224     0.11100
H1182       H  0.83918602  0.48782905  0.12786539     0.16900
C1183       C  0.94409024  0.41303559  0.00216419    -0.01300
C1184       C  0.91640824  0.41855494  0.99964206     0.07300
C1185       C  0.90863611  0.44539132  0.99543227    -0.07200
C1186       C  0.92734960  0.46559765  0.99144569     0.04800
C1187       C  0.95457340  0.46019045  0.99530229    -0.14500
C1188       C  0.96255358  0.43388485  0.00102081    -0.07800
C1189       C  0.89538527  0.39706384  0.00046838     0.05700
C1190       C  0.89761766  0.37530503  0.01851863    -0.08900
C1191       C  0.87966124  0.35392896  0.01799280     0.00700
C1192       C  0.85601353  0.35597318  0.00263800     0.00600
C1193       C  0.85292265  0.37862401  0.98598730    -0.12500
C1194       C  0.87293841  0.39771237  0.98322416     0.01000
C1195       C  0.88780152  0.32950858  0.03120337     0.40300
C1196       C  0.87036348  0.41657941  0.96124387     0.37000
C1197       C  0.95460180  0.38629774  0.00504499     0.36700
C1198       C  0.91827352  0.49124414  0.98157782     0.37400
N1199       N  0.89515554  0.31007007  0.04161638    -0.43400
N1200       N  0.86828678  0.43154746  0.94351948    -0.43800
N1201       N  0.91094730  0.51150839  0.97292879    -0.41200
N1202       N  0.96322304  0.36495347  0.00759628    -0.42600
H1203       H  0.98347286  0.42953757  0.00413453     0.13600
H1204       H  0.88776790  0.45072002  0.99450349     0.10100
H1205       H  0.91395719  0.37430262  0.03260003     0.11100
H1206       H  0.83498590  0.38129754  0.97432794     0.16900
C1207       C  0.97310878  0.44406193  0.91255250    -0.01300
C1208       C  0.99203363  0.42320617  0.91117359     0.07300
C1209       C  0.01119484  0.42073011  0.93158170    -0.07200
C1210       C  0.01226085  0.43923226  0.95256446     0.04800
C1211       C  0.99406082  0.46078088  0.95324954    -0.14500
C1212       C  0.97412841  0.46245677  0.93352984    -0.07800
C1213       C  0.99392294  0.40588938  0.88706891     0.05700
C1214       C  0.00493442  0.41686109  0.86369942    -0.08900
C1215       C  0.00680702  0.40199883  0.84016404     0.00700
C1216       C  0.99747808  0.37545002  0.83952887     0.00600
C1217       C  0.98645022  0.36433840  0.86292360    -0.12500
C1218       C  0.98480371  0.37928197  0.88669478     0.01000
C1219       C  0.01775467  0.41482350  0.81666675     0.40300
C1220       C  0.97335694  0.36711191  0.91028712     0.37000
C1221       C  0.95263252  0.44716042  0.89243978     0.36700
C1222       C  0.03176267  0.43542415  0.97350571     0.37400
N1223       N  0.02656717  0.42541115  0.79800177    -0.43400
N1224       N  0.96420467  0.35727312  0.92919487    -0.43800
N1225       N  0.04716593  0.43219663  0.99050246    -0.41200
N1226       N  0.93616706  0.44965974  0.87636642    -0.42600
H1227       H  0.95973777  0.47861912  0.93419974     0.13600
H1228       H  0.02571059  0.40468916  0.93076249     0.10100
H1229       H  0.01194913  0.43726687  0.86383037     0.11100
H1230       H  0.97912449  0.34408836  0.86255372     0.16900
C1231       C  0.27892100  0.84996287  0.13937681    -0.01300
C1232       C  0.30061331  0.83800344  0.12584484     0.07300
C1233       C  0.31373033  0.81654031  0.13842885    -0.07200
C1234       C  0.30398171  0.80492807  0.16183971     0.04800
C1235       C  0.27943114  0.81370517  0.17275712    -0.14500
C1236       C  0.26802476  0.83735812  0.16230192    -0.07800
C1237       C  0.30836783  0.84411092  0.09737153     0.05700
C1238       C  0.33565456  0.84398255  0.09083454    -0.08900
C1239       C  0.34439497  0.83741159  0.06498419     0.00700
C1240       C  0.32565136  0.83348862  0.04437066     0.00600
C1241       C  0.29862875  0.83771538  0.04996370    -0.12500
C1242       C  0.28976396  0.84204722  0.07616293     0.01000
C1243       C  0.37210510  0.83071928  0.06155214     0.40300
C1244       C  0.26151559  0.84039607  0.08083418     0.37000
C1245       C  0.26765149  0.87497060  0.13013893     0.36700
C1246       C  0.31952766  0.78329900  0.17334992     0.37400
N1247       N  0.39429744  0.82496172  0.05935577    -0.43400
N1248       N  0.23883589  0.83897344  0.08433051    -0.43800
N1249       N  0.33248607  0.76612451  0.18207512    -0.41200
N1250       N  0.25872968  0.89508972  0.12275562    -0.42600
H1251       H  0.25002938  0.84530284  0.17117490     0.13600
H1252       H  0.33100910  0.80754110  0.12907811     0.10100
H1253       H  0.35021740  0.84549745  0.10679574     0.11100
H1254       H  0.28408171  0.83470447  0.03421074     0.16900
C1255       C  0.39220810  0.78373649  0.24890057    -0.01300
C1256       C  0.39287758  0.80812870  0.23437682     0.07300
C1257       C  0.36889810  0.82159803  0.22910449    -0.07200
C1258       C  0.34450892  0.81073405  0.23700004     0.04800
C1259       C  0.34365080  0.78553542  0.25001900    -0.14500
C1260       C  0.36770944  0.77259320  0.25646253    -0.07800
C1261       C  0.41819113  0.81974100  0.22399983     0.05700
C1262       C  0.43274153  0.80587613  0.20453276    -0.08900
C1263       C  0.45702388  0.81568111  0.19482057     0.00700
C1264       C  0.46710844  0.84013298  0.20437213     0.00600
C1265       C  0.45193961  0.85445361  0.22308746    -0.12500
C1266       C  0.42778499  0.84451109  0.23292848     0.01000
C1267       C  0.47204285  0.79913877  0.17670897     0.40300
C1268       C  0.41406617  0.85924568  0.25347362     0.37000
C1269       C  0.41639526  0.77005959  0.25668847     0.36700
C1270       C  0.32069727  0.82629621  0.23218301     0.37400
N1271       N  0.48400311  0.78585270  0.16214668    -0.43400
N1272       N  0.40311183  0.87100342  0.27001360    -0.43800
N1273       N  0.30176551  0.83907950  0.22858915    -0.41200
N1274       N  0.43576120  0.75920497  0.26320919    -0.42600
H1275       H  0.36735595  0.75335244  0.26661240     0.13600
H1276       H  0.36922668  0.84059226  0.21848525     0.10100
H1277       H  0.42540552  0.78692018  0.19741353     0.11100
H1278       H  0.45977920  0.87279453  0.23119529     0.16900
C1279       C  0.37428172  0.25247953  0.80992258    -0.01300
C1280       C  0.37257939  0.23356715  0.83107985     0.07300
C1281       C  0.34856537  0.23124782  0.84513338    -0.07200
C1282       C  0.32584043  0.24549440  0.83678697     0.04800
C1283       C  0.32693678  0.26274607  0.81420705    -0.14500
C1284       C  0.35160329  0.26702694  0.80183890    -0.07800
C1285       C  0.39399366  0.21318132  0.83558557     0.05700
C1286       C  0.41875650  0.22078838  0.84589643    -0.08900
C1287       C  0.44074397  0.20328233  0.84520536     0.00700
C1288       C  0.43793184  0.17733370  0.83465449     0.00600
C1289       C  0.41251181  0.16906699  0.82671964    -0.12500
C1290       C  0.39084432  0.18679411  0.82651555     0.01000
C1291       C  0.46647073  0.21374068  0.85209331     0.40300
C1292       C  0.36654119  0.17847594  0.81371195     0.37000
C1293       C  0.39817570  0.25490703  0.79411626     0.36700
C1294       C  0.30088239  0.23993926  0.84988926     0.37400
N1295       N  0.48694395  0.22263927  0.85740351    -0.43400
N1296       N  0.34724250  0.17193762  0.80305560    -0.43800
N1297       N  0.28087937  0.23540590  0.86034788    -0.41200
N1298       N  0.41727115  0.25666075  0.78133855    -0.42600
H1299       H  0.35249452  0.27934337  0.78385102     0.13600
H1300       H  0.34703803  0.21671186  0.86132217     0.10100
H1301       H  0.42138802  0.24111474  0.85263749     0.11100
H1302       H  0.41025157  0.14955824  0.81779332     0.16900
C1303       C  0.29902341  0.08151087  0.82223057    -0.01300
C1304       C  0.28475798  0.09448472  0.84266036     0.07300
C1305       C  0.28296504  0.08230561  0.86809542    -0.07200
C1306       C  0.29335003  0.05647935  0.87252625     0.04800
C1307       C  0.30578764  0.04274130  0.85139226    -0.14500
C1308       C  0.30930413  0.05588742  0.82670524    -0.07800
C1309       C  0.27026283  0.11977892  0.83654026     0.05700
C1310       C  0.24634789  0.11862243  0.82204605    -0.08900
C1311       C  0.23531672  0.14156235  0.80985611     0.00700
C1312       C  0.24861848  0.16628558  0.81170380     0.00600
C1313       C  0.27126559  0.16758522  0.82846547    -0.12500
C1314       C  0.28206874  0.14469036  0.84076792     0.01000
C1315       C  0.21109407  0.13871804  0.79466065     0.40300
C1316       C  0.30624787  0.14692489  0.85620078     0.37000
C1317       C  0.30164367  0.09339980  0.79585983     0.36700
C1318       C  0.28946295  0.04355645  0.89820660     0.37400
N1319       N  0.19166186  0.13636764  0.78249509    -0.43400
N1320       N  0.32557440  0.14869931  0.86864658    -0.43800
N1321       N  0.28653375  0.03301678  0.91873818    -0.41200
N1322       N  0.30356615  0.10300414  0.77475547    -0.42600
H1323       H  0.31797677  0.04511902  0.81006608     0.13600
H1324       H  0.27229003  0.09234276  0.88397852     0.10100
H1325       H  0.23706685  0.09941581  0.81898698     0.11100
H1326       H  0.28170432  0.18626332  0.83071006     0.16900
C1327       C  0.65848169  0.20374655  0.09462690    -0.01300
C1328       C  0.67134696  0.18435061  0.11068002     0.07300
C1329       C  0.67699825  0.15911055  0.09993372    -0.07200
C1330       C  0.67335949  0.15441093  0.07248999     0.04800
C1331       C  0.66363949  0.17510820  0.05579978    -0.14500
C1332       C  0.65488147  0.19903353  0.06737810    -0.07800
C1333       C  0.68597423  0.19285497  0.13482619     0.05700
C1334       C  0.67239263  0.19910644  0.15851650    -0.08900
C1335       C  0.68592364  0.21027880  0.18031859     0.00700
C1336       C  0.71358484  0.21503553  0.17847466     0.00600
C1337       C  0.72681242  0.20886698  0.15451264    -0.12500
C1338       C  0.71336492  0.19807057  0.13287578     0.01000
C1339       C  0.67094321  0.21639804  0.20414814     0.40300
C1340       C  0.72798960  0.19366457  0.10836112     0.37000
C1341       C  0.65235567  0.22998568  0.10474346     0.36700
C1342       C  0.68325424  0.12982803  0.06135398     0.37400
N1343       N  0.65887766  0.22122533  0.22324960    -0.43400
N1344       N  0.73969232  0.19025790  0.08872331    -0.43800
N1345       N  0.69126989  0.11019294  0.05232118    -0.41200
N1346       N  0.64755925  0.25101999  0.11285034    -0.42600
H1347       H  0.64770243  0.21514021  0.05451957     0.13600
H1348       H  0.68710068  0.14425618  0.11226704     0.10100
H1349       H  0.65118180  0.19570202  0.15974507     0.11100
H1350       H  0.74788775  0.21273792  0.15241580     0.16900
C1351       C  0.66260108  0.07680263  0.21162697    -0.01300
C1352       C  0.66750697  0.09784456  0.19320178     0.07300
C1353       C  0.66724321  0.09217237  0.16557238    -0.07200
C1354       C  0.66688802  0.06571222  0.15661628     0.04800
C1355       C  0.66558255  0.04463627  0.17544631    -0.14500
C1356       C  0.66111257  0.05060634  0.20247245    -0.07800
C1357       C  0.68066260  0.12285080  0.20217428     0.05700
C1358       C  0.70628072  0.12780331  0.19238274    -0.08900
C1359       C  0.72213791  0.14772117  0.20317230     0.00700
C1360       C  0.71291694  0.16273537  0.22530469     0.00600
C1361       C  0.68655095  0.15903993  0.23391081    -0.12500
C1362       C  0.67023245  0.13976254  0.22208883     0.01000
C1363       C  0.74783849  0.15184317  0.19095087     0.40300
C1364       C  0.64288253  0.13791216  0.23048852     0.37000
C1365       C  0.66329794  0.08059658  0.24028385     0.36700
C1366       C  0.67170974  0.06063742  0.12860664     0.37400
N1367       N  0.76838643  0.15501490  0.18106828    -0.43400
N1368       N  0.62093771  0.13651663  0.23722355    -0.43800
N1369       N  0.67570101  0.05671844  0.10614022    -0.41200
N1370       N  0.66383061  0.08337910  0.26328575    -0.42600
H1371       H  0.66039533  0.03438850  0.21705541     0.13600
H1372       H  0.67074386  0.10816520  0.15120264     0.10100
H1373       H  0.71443847  0.11532083  0.17673855     0.11100
H1374       H  0.67867935  0.17106524  0.25003117     0.16900
C1375       C  0.41002079  0.01288556  0.95390071    -0.01300
C1376       C  0.41325982  0.00400825  0.92733029     0.07300
C1377       C  0.43835830  0.99497306  0.91911822    -0.07200
C1378       C  0.45986484  0.99389112  0.93705571     0.04800
C1379       C  0.45654370  0.00210393  0.96386854    -0.14500
C1380       C  0.43151450  0.01173309  0.97192031    -0.07800
C1381       C  0.39058069  0.00261750  0.90806622     0.05700
C1382       C  0.38958548  0.02012279  0.88592016    -0.08900
C1383       C  0.36928493  0.01838244  0.86659391     0.00700
C1384       C  0.34942775  0.99873083  0.86924577     0.00600
C1385       C  0.35056117  0.98122261  0.89145538    -0.12500
C1386       C  0.37083146  0.98294847  0.91066745     0.01000
C1387       C  0.37004046  0.03640658  0.84393809     0.40300
C1388       C  0.37136781  0.96387174  0.93253128     0.37000
C1389       C  0.38493782  0.02359708  0.96294796     0.36700
C1390       C  0.48467644  0.98294764  0.92768023     0.37400
N1391       N  0.37141417  0.05110901  0.82595295    -0.43400
N1392       N  0.37187553  0.94851329  0.94999952    -0.43800
N1393       N  0.50427973  0.97383809  0.91972347    -0.41200
N1394       N  0.36486857  0.03234125  0.97014090    -0.42600
H1395       H  0.42879791  0.01830513  0.99237313     0.13600
H1396       H  0.44095430  0.98804393  0.89876696     0.10100
H1397       H  0.40481777  0.03515408  0.88368198     0.11100
H1398       H  0.33532991  0.96618307  0.89384651     0.16900
C1399       C  0.43885306  0.92069721  0.98084660    -0.01300
C1400       C  0.41951457  0.91749368  0.00116783     0.07300
C1401       C  0.41842777  0.93615786  0.02199320    -0.07200
C1402       C  0.43597901  0.95766856  0.02267286     0.04800
C1403       C  0.45638041  0.95962134  0.00345933    -0.14500
C1404       C  0.45745893  0.94114337  0.98260234    -0.07800
C1405       C  0.40109980  0.89431861  0.00147760     0.05700
C1406       C  0.41183170  0.86854321  0.99869255    -0.08900
C1407       C  0.39545260  0.84619328  0.99777635     0.00700
C1408       C  0.36775200  0.84923814  0.00065275     0.00600
C1409       C  0.35702447  0.87475357  0.00467769    -0.12500
C1410       C  0.37331528  0.89727088  0.00480885     0.01000
C1411       C  0.40770592  0.82024944  0.99515644     0.40300
C1412       C  0.36082828  0.92308278  0.00776553     0.37000
C1413       C  0.43982122  0.90365395  0.95768824     0.36700
C1414       C  0.43206109  0.97788012  0.04266815     0.37400
N1415       N  0.41775077  0.79954030  0.99307146    -0.43400
N1416       N  0.35078676  0.94374242  0.01029056    -0.43800
N1417       N  0.42839004  0.99417509  0.05851966    -0.41200
N1418       N  0.44064666  0.89004040  0.93910818    -0.42600
H1419       H  0.47294263  0.94273878  0.96761623     0.13600
H1420       H  0.40385707  0.93396908  0.03781378     0.10100
H1421       H  0.43317899  0.86583804  0.99728434     0.11100
H1422       H  0.33573729  0.87707694  0.00703143     0.16900
C1423       C  0.55522153  0.08383643  0.00505976    -0.01300
C1424       C  0.58259719  0.07672600  0.00469795     0.07300
C1425       C  0.58917492  0.04942034  0.00348992    -0.07200
C1426       C  0.56949740  0.02983964  0.00139631     0.04800
C1427       C  0.54232727  0.03693826  0.00343794    -0.14500
C1428       C  0.53570656  0.06404363  0.00573525    -0.07800
C1429       C  0.60428889  0.09735730  0.00576975     0.05700
C1430       C  0.60159725  0.11892338  0.02332575    -0.08900
C1431       C  0.61903894  0.14059052  0.02254806     0.00700
C1432       C  0.64258668  0.13940218  0.00697463     0.00600
C1433       C  0.64644452  0.11665504  0.99103780    -0.12500
C1434       C  0.62715865  0.09658664  0.98923442     0.01000
C1435       C  0.60995256  0.16449396  0.03552340     0.40300
C1436       C  0.63094419  0.07636809  0.96915615     0.37000
C1437       C  0.54624875  0.11123864  0.00354562     0.36700
C1438       C  0.57790807  0.00302694  0.99534166     0.37400
N1439       N  0.60133134  0.18318063  0.04590522    -0.43400
N1440       N  0.63406508  0.06026295  0.95298237    -0.43800
N1441       N  0.58527087  0.98190666  0.98969876    -0.41200
N1442       N  0.53898289  0.13317630  0.00238086    -0.42600
H1443       H  0.51498759  0.06987578  0.00736715     0.13600
H1444       H  0.60983640  0.04320966  0.00370023     0.10100
H1445       H  0.58479757  0.11967213  0.03687375     0.11100
H1446       H  0.66431821  0.11464747  0.97933119     0.16900
C1447       C  0.47783084  0.07961365  0.94294766    -0.01300
C1448       C  0.49645145  0.08052317  0.92188342     0.07300
C1449       C  0.51694671  0.06137541  0.92142056    -0.07200
C1450       C  0.51880149  0.04130580  0.94133504     0.04800
C1451       C  0.49997337  0.04023798  0.96237612    -0.14500
C1452       C  0.47984884  0.05984014  0.96300335    -0.07800
C1453       C  0.49361619  0.10030816  0.89938889     0.05700
C1454       C  0.50670801  0.12496174  0.90050825    -0.08900
C1455       C  0.50356542  0.14422113  0.87988894     0.00700
C1456       C  0.48633922  0.13932242  0.85810671     0.00600
C1457       C  0.47339070  0.11454954  0.85713722    -0.12500
C1458       C  0.47718758  0.09506060  0.87717958     0.01000
C1459       C  0.51858737  0.16852560  0.88131614     0.40300
C1460       C  0.46493125  0.06934427  0.87397148     0.37000
C1461       C  0.45607648  0.09847319  0.94395638     0.36700
C1462       C  0.53945292  0.02140004  0.93892945     0.37400
N1463       N  0.53100993  0.18780257  0.88273905    -0.43400
N1464       N  0.45545922  0.04859732  0.87113654    -0.43800
N1465       N  0.55594091  0.00540826  0.93650905    -0.41200
N1466       N  0.43861491  0.11359082  0.94457928    -0.42600
H1467       H  0.46537052  0.05941148  0.97907655     0.13600
H1468       H  0.53113213  0.06172449  0.90508367     0.10100
H1469       H  0.51960296  0.12904435  0.91740144     0.11100
H1470       H  0.46106112  0.11002429  0.83992981     0.16900
C1471       C  0.49862925  0.91115001  0.06160712    -0.01300
C1472       C  0.49574070  0.91819698  0.08886138     0.07300
C1473       C  0.49176047  0.94529642  0.09488738    -0.07200
C1474       C  0.49128084  0.96509897  0.07469405     0.04800
C1475       C  0.49491495  0.95818013  0.04750605    -0.14500
C1476       C  0.49765504  0.93093660  0.04135396    -0.07800
C1477       C  0.49872595  0.89831742  0.11159190     0.05700
C1478       C  0.51750452  0.90344619  0.13170500    -0.08900
C1479       C  0.52094926  0.88612349  0.15373464     0.00700
C1480       C  0.50640455  0.86199291  0.15554983     0.00600
C1481       C  0.48703203  0.85717353  0.13589698    -0.12500
C1482       C  0.48278545  0.87524466  0.11436249     0.01000
C1483       C  0.53922469  0.89406261  0.17449945     0.40300
C1484       C  0.46095774  0.87045867  0.09628858     0.37000
C1485       C  0.50425379  0.88402320  0.05390258     0.36700
C1486       C  0.48656364  0.99235078  0.08249600     0.37400
N1487       N  0.55396722  0.90050521  0.19101187    -0.43400
N1488       N  0.44339893  0.86673272  0.08182243    -0.43800
N1489       N  0.48261342  0.01411717  0.08897671    -0.41200
N1490       N  0.50868779  0.86226619  0.04768768    -0.42600
H1491       H  0.50037061  0.92521017  0.02064511     0.13600
H1492       H  0.48926118  0.95108017  0.11562082     0.10100
H1493       H  0.52942687  0.92135781  0.13035527     0.11100
H1494       H  0.47483569  0.83955915  0.13762472     0.16900
C1495       C  0.62883545  0.98979853  0.09581229    -0.01300
C1496       C  0.60286387  0.99567277  0.10493467     0.07300
C1497       C  0.59913773  0.00121556  0.13225315    -0.07200
C1498       C  0.62071838  0.00139037  0.15019305     0.04800
C1499       C  0.64662836  0.99551939  0.14096687    -0.14500
C1500       C  0.65023150  0.98952972  0.11380748    -0.07800
C1501       C  0.57961284  0.99568481  0.08616746     0.05700
C1502       C  0.57522869  0.97310003  0.07038220    -0.08900
C1503       C  0.55605959  0.97326302  0.05002869     0.00700
C1504       C  0.53948013  0.99587055  0.04607327     0.00600
C1505       C  0.54289937  0.01797713  0.06282205    -0.12500
C1506       C  0.56290900  0.01822691  0.08244853     0.01000
C1507       C  0.55545492  0.95078033  0.03220625     0.40300
C1508       C  0.56661608  0.04233233  0.09753309     0.37000
C1509       C  0.63423990  0.98490199  0.06784713     0.36700
C1510       C  0.61550411  0.00696270  0.17798686     0.37400
N1511       N  0.55551846  0.93283183  0.01779821    -0.43400
N1512       N  0.56948118  0.06172849  0.10954816    -0.43800
N1513       N  0.61082716  0.01153601  0.20018624    -0.41200
N1514       N  0.63834744  0.98088658  0.04541962    -0.42600
H1515       H  0.67010454  0.98542713  0.10649191     0.13600
H1516       H  0.57927806  0.00529062  0.13962075     0.10100
H1517       H  0.58772829  0.95557363  0.07319490     0.11100
H1518       H  0.53021535  0.03537724  0.06011465     0.16900
C1519       C  0.79599971  0.89556213  0.35665380    -0.01300
C1520       C  0.79600685  0.89056175  0.32877373     0.07300
C1521       C  0.80159084  0.91174039  0.31101900    -0.07200
C1522       C  0.80614344  0.93752550  0.32043381     0.04800
C1523       C  0.80498782  0.94273123  0.34817435    -0.14500
C1524       C  0.80030657  0.92154153  0.36609783    -0.07800
C1525       C  0.78864605  0.86403305  0.31743642     0.05700
C1526       C  0.76378055  0.85292927  0.32359449    -0.08900
C1527       C  0.75510233  0.82930452  0.31150760     0.00700
C1528       C  0.77143235  0.81618147  0.29260199     0.00600
C1529       C  0.79662456  0.82707989  0.28701953    -0.12500
C1530       C  0.80520364  0.85067414  0.29907100     0.01000
C1531       C  0.72916490  0.81943928  0.31865573     0.40300
C1532       C  0.83106088  0.86100600  0.29218417     0.37000
C1533       C  0.79113405  0.87446158  0.37589257     0.36700
C1534       C  0.81013017  0.95879068  0.30108948     0.37400
N1535       N  0.70833955  0.81164574  0.32447757    -0.43400
N1536       N  0.85159711  0.86980380  0.28680088    -0.43800
N1537       N  0.81324145  0.97589865  0.28567028    -0.41200
N1538       N  0.78717613  0.85747573  0.39123657    -0.42600
H1539       H  0.79887794  0.92550586  0.38737850     0.13600
H1540       H  0.80127258  0.90837323  0.28957482     0.10100
H1541       H  0.75069330  0.86321876  0.33736636     0.11100
H1542       H  0.80963015  0.81741518  0.27272558     0.16900
C1543       C  0.70551601  0.84569007  0.16395501    -0.01300
C1544       C  0.71862953  0.87016833  0.16722942     0.07300
C1545       C  0.74231272  0.87063355  0.18229983    -0.07200
C1546       C  0.75193824  0.84756304  0.19552740     0.04800
C1547       C  0.73820940  0.82329184  0.19300644    -0.14500
C1548       C  0.71555103  0.82258066  0.17646897    -0.07800
C1549       C  0.70609540  0.89601680  0.15888998     0.05700
C1550       C  0.68407368  0.90531293  0.17343761    -0.08900
C1551       C  0.67559211  0.93198706  0.17122945     0.00700
C1552       C  0.68898573  0.94973860  0.15385484     0.00600
C1553       C  0.70905714  0.93960879  0.13715085    -0.12500
C1554       C  0.71778569  0.91303972  0.13963927     0.01000
C1555       C  0.65564866  0.94145838  0.18965887     0.40300
C1556       C  0.73977321  0.90417330  0.12339423     0.37000
C1557       C  0.68093599  0.84404926  0.14912088     0.36700
C1558       C  0.77410837  0.85003549  0.21366962     0.37400
N1559       N  0.63983043  0.94896058  0.20466273    -0.43400
N1560       N  0.75737323  0.89719289  0.11024948    -0.43800
N1561       N  0.79179183  0.85245460  0.22827454    -0.41200
N1562       N  0.66113482  0.84258598  0.13741352    -0.42600
H1563       H  0.70460282  0.80409604  0.17470686     0.13600
H1564       H  0.75222024  0.88952036  0.18535427     0.10100
H1565       H  0.67496015  0.89231952  0.18827709     0.11100
H1566       H  0.71970195  0.95318053  0.12399135     0.16900
C1567       C  0.86019084  0.66742892  0.20854226    -0.01300
C1568       C  0.87336314  0.68026114  0.18720125     0.07300
C1569       C  0.86164157  0.70317259  0.17543037    -0.07200
C1570       C  0.83809042  0.71432144  0.18597981     0.04800
C1571       C  0.82629675  0.70265831  0.20895036    -0.14500
C1572       C  0.83677445  0.67824513  0.21865278    -0.07800
C1573       C  0.90103533  0.67201377  0.18040640     0.05700
C1574       C  0.90603321  0.64592277  0.17134329    -0.08900
C1575       C  0.93157229  0.63447231  0.17345205     0.00700
C1576       C  0.95259903  0.64950929  0.18409401     0.00600
C1577       C  0.94809693  0.67644556  0.19024633    -0.12500
C1578       C  0.92260538  0.68764232  0.18889857     0.01000
C1579       C  0.93534057  0.60691717  0.16622480     0.40300
C1580       C  0.91860199  0.71404514  0.19959688     0.37000
C1581       C  0.87157971  0.64449887  0.22225831     0.36700
C1582       C  0.82691100  0.73779690  0.17322775     0.37400
N1583       N  0.93837870  0.58488703  0.16015781    -0.43400
N1584       N  0.91533530  0.73508434  0.20839401    -0.43800
N1585       N  0.81775481  0.75644164  0.16279334    -0.41200
N1586       N  0.88078132  0.62625891  0.23335374    -0.42600
H1587       H  0.82733649  0.66797497  0.23529535     0.13600
H1588       H  0.87150743  0.71295447  0.15875635     0.10100
H1589       H  0.88952867  0.63375733  0.16486725     0.11100
H1590       H  0.96418585  0.68809392  0.19853241     0.16900
C1591       C  0.84419533  0.78879437  0.32809558    -0.01300
C1592       C  0.86942992  0.77886175  0.32095205     0.07300
C1593       C  0.87120524  0.75459614  0.30735386    -0.07200
C1594       C  0.84823483  0.74156901  0.29868028     0.04800
C1595       C  0.82300964  0.75327081  0.30290723    -0.14500
C1596       C  0.82116303  0.77587053  0.31917232    -0.07800
C1597       C  0.89361114  0.79560302  0.32293680     0.05700
C1598       C  0.91168570  0.79211189  0.34421749    -0.08900
C1599       C  0.93652305  0.80498945  0.34384784     0.00700
C1600       C  0.94312772  0.82209943  0.32216542     0.00600
C1601       C  0.92378557  0.82731988  0.30237165    -0.12500
C1602       C  0.89977655  0.81357873  0.30203011     0.01000
C1603       C  0.95557748  0.79836300  0.36454001     0.40300
C1604       C  0.88325932  0.81581388  0.27836811     0.37000
C1605       C  0.84171819  0.81283770  0.34353814     0.36700
C1606       C  0.85119917  0.71625675  0.28552097     0.37400
N1607       N  0.97066782  0.79290741  0.38128856    -0.43400
N1608       N  0.87032965  0.81722528  0.25918529    -0.43800
N1609       N  0.85410509  0.69563791  0.27571566    -0.41200
N1610       N  0.84007187  0.83210837  0.35600436    -0.42600
H1611       H  0.80181856  0.78399762  0.32403407     0.13600
H1612       H  0.89060243  0.74652604  0.30233142     0.10100
H1613       H  0.90705382  0.77813444  0.36024732     0.11100
H1614       H  0.92873650  0.83999901  0.28535315     0.16900
C1615       C  0.66084661  0.56501475  0.33576737    -0.01300
C1616       C  0.65668209  0.58778157  0.31927665     0.07300
C1617       C  0.63886963  0.58593765  0.29761259    -0.07200
C1618       C  0.62752035  0.56164854  0.29079939     0.04800
C1619       C  0.63529176  0.53820050  0.30452360    -0.14500
C1620       C  0.65060964  0.54025755  0.32797938    -0.07800
C1621       C  0.67385465  0.61192538  0.32072022     0.05700
C1622       C  0.70168938  0.60840016  0.32031613    -0.08900
C1623       C  0.71854698  0.62937227  0.31288011     0.00700
C1624       C  0.70750424  0.65406228  0.30493365     0.00600
C1625       C  0.68003277  0.65818079  0.30732793    -0.12500
C1626       C  0.66332425  0.63777619  0.31614235     0.01000
C1627       C  0.74666225  0.62409877  0.31020433     0.40300
C1628       C  0.63521766  0.64343052  0.31839166     0.37000
C1629       C  0.67625931  0.56645444  0.36014109     0.36700
C1630       C  0.60887036  0.56104706  0.26877223     0.37400
N1631       N  0.76917853  0.61989489  0.30789193    -0.43400
N1632       N  0.61269903  0.64795361  0.32002004    -0.43800
N1633       N  0.59370473  0.56061680  0.25131982    -0.41200
N1634       N  0.68845199  0.56775204  0.37977372    -0.42600
H1635       H  0.65622786  0.52239927  0.33906952     0.13600
H1636       H  0.63515701  0.60303804  0.28465628     0.10100
H1637       H  0.71020522  0.58869161  0.32334527     0.11100
H1638       H  0.67131947  0.67680536  0.30047669     0.16900
C1639       C  0.79684541  0.63766146  0.17005413    -0.01300
C1640       C  0.79337349  0.61069436  0.17765495     0.07300
C1641       C  0.77422602  0.60443664  0.19710876    -0.07200
C1642       C  0.76015767  0.62449600  0.21036933     0.04800
C1643       C  0.76460855  0.65160331  0.20390626    -0.14500
C1644       C  0.78202579  0.65787182  0.18277104    -0.07800
C1645       C  0.81179031  0.58881016  0.16936998     0.05700
C1646       C  0.83782991  0.58894860  0.17953449    -0.08900
C1647       C  0.85246513  0.56513166  0.18214229     0.00700
C1648       C  0.84123186  0.54080729  0.17398475     0.00600
C1649       C  0.81703450  0.54140598  0.15997557    -0.12500
C1650       C  0.80212279  0.56512138  0.15788970     0.01000
C1651       C  0.87754080  0.56555621  0.19623184     0.40300
C1652       C  0.77583873  0.56409750  0.14634582     0.37000
C1653       C  0.81634025  0.64510911  0.15022234     0.36700
C1654       C  0.74205022  0.61664164  0.23143709     0.37400
N1655       N  0.89757501  0.56585641  0.20764310    -0.43400
N1656       N  0.75474089  0.56319309  0.13715212    -0.43800
N1657       N  0.72759164  0.61009468  0.24824206    -0.41200
N1658       N  0.83205072  0.65107748  0.13438263    -0.42600
H1659       H  0.78558927  0.67854062  0.17763955     0.13600
H1660       H  0.77153068  0.58384651  0.20325976     0.10100
H1661       H  0.84552942  0.60702900  0.18823261     0.11100
H1662       H  0.80817865  0.52280114  0.15376797     0.16900
C1663       C  0.64020719  0.78137381  0.18942853    -0.01300
C1664       C  0.62083124  0.76700478  0.17518001     0.07300
C1665       C  0.62550492  0.73986476  0.16989763    -0.07200
C1666       C  0.64847421  0.72680447  0.17970145     0.04800
C1667       C  0.66726509  0.74104603  0.19494442    -0.14500
C1668       C  0.66306930  0.76843510  0.19889524    -0.07800
C1669       C  0.59451712  0.77961392  0.16916681     0.05700
C1670       C  0.59349212  0.80318516  0.15361436    -0.08900
C1671       C  0.57207420  0.82115118  0.15594975     0.00700
C1672       C  0.55108918  0.81522726  0.17368710     0.00600
C1673       C  0.55013548  0.78958095  0.18544143    -0.12500
C1674       C  0.57174069  0.77197034  0.18368543     0.01000
C1675       C  0.57328223  0.84607748  0.14137056     0.40300
C1676       C  0.57133190  0.74782228  0.19975722     0.37000
C1677       C  0.63615850  0.80899648  0.19652533     0.36700
C1678       C  0.65229211  0.69893680  0.17377427     0.37400
N1679       N  0.57481239  0.86570538  0.12906185    -0.43400
N1680       N  0.57100306  0.72851096  0.21267942    -0.43800
N1681       N  0.65537751  0.67661550  0.16887543    -0.41200
N1682       N  0.63278748  0.83109623  0.20217035    -0.42600
H1683       H  0.67689504  0.77957995  0.21093423     0.13600
H1684       H  0.61077183  0.72869256  0.15888887     0.10100
H1685       H  0.61064034  0.80880028  0.14177515     0.11100
H1686       H  0.53382179  0.78457778  0.19871472     0.16900
C1687       C  0.60949858  0.74376174  0.29178882    -0.01300
C1688       C  0.60910571  0.72549861  0.31371012     0.07300
C1689       C  0.63326800  0.71880283  0.32628453    -0.07200
C1690       C  0.65744325  0.72799159  0.31588731     0.04800
C1691       C  0.65789403  0.74271718  0.29160453    -0.14500
C1692       C  0.63380872  0.75172589  0.28053741    -0.07800
C1693       C  0.58405723  0.71168854  0.32202015     0.05700
C1694       C  0.56906672  0.69878372  0.30227295    -0.08900
C1695       C  0.54384880  0.68853984  0.30792986     0.00700
C1696       C  0.53344582  0.69005657  0.33416717     0.00600
C1697       C  0.54933572  0.70088744  0.35445882    -0.12500
C1698       C  0.57444383  0.71164701  0.34865835     0.01000
C1699       C  0.52798931  0.67930558  0.28576994     0.40300
C1700       C  0.58889452  0.72430914  0.36999093     0.37000
C1701       C  0.58518758  0.75427334  0.28028383     0.36700
C1702       C  0.68182200  0.72111307  0.32974616     0.37400
N1703       N  0.51545045  0.67200469  0.26785155    -0.43400
N1704       N  0.60047129  0.73436623  0.38716982    -0.43800
N1705       N  0.70141503  0.71572203  0.34077735    -0.41200
N1706       N  0.56566517  0.76286046  0.27130838    -0.42600
H1707       H  0.63391771  0.76347261  0.26214751     0.13600
H1708       H  0.63343325  0.70538876  0.34346366     0.10100
H1709       H  0.57651818  0.69800057  0.28189496     0.11100
H1710       H  0.54124451  0.70276639  0.37449902     0.16900
C1711       C  0.85586362  0.30808386  0.80527313    -0.01300
C1712       C  0.87014466  0.32510247  0.78783966     0.07300
C1713       C  0.85992036  0.32977079  0.76184462    -0.07200
C1714       C  0.83639593  0.31751711  0.75305218     0.04800
C1715       C  0.82281386  0.29966776  0.77017505    -0.14500
C1716       C  0.83290002  0.29527283  0.79622716    -0.07800
C1717       C  0.89685180  0.33612272  0.79535144     0.05700
C1718       C  0.91693385  0.31848427  0.80429661    -0.08900
C1719       C  0.94309418  0.32713807  0.80814490     0.00700
C1720       C  0.94995989  0.35385539  0.80240670     0.00600
C1721       C  0.92974901  0.37188204  0.79483205    -0.12500
C1722       C  0.90331949  0.36335235  0.79173708     0.01000
C1723       C  0.96306269  0.30755099  0.81550321     0.40300
C1724       C  0.88322819  0.38276281  0.78435491     0.37000
C1725       C  0.86452515  0.30317990  0.83250121     0.36700
C1726       C  0.82782461  0.32202601  0.72575477     0.37400
N1727       N  0.97893986  0.29171381  0.82133399    -0.43400
N1728       N  0.86695233  0.39817281  0.77847763    -0.43800
N1729       N  0.82102663  0.32562988  0.70382925    -0.41200
N1730       N  0.87175479  0.29920021  0.85421808    -0.42600
H1731       H  0.82289732  0.28143188  0.80960734     0.13600
H1732       H  0.87091671  0.34224652  0.74793854     0.10100
H1733       H  0.91253835  0.29747704  0.80689841     0.11100
H1734       H  0.93485537  0.39236646  0.79003101     0.16900
C1735       C  0.86186377  0.17008424  0.72727668    -0.01300
C1736       C  0.87364067  0.17768666  0.70269817     0.07300
C1737       C  0.86058686  0.19637321  0.68627208    -0.07200
C1738       C  0.83655555  0.20804369  0.69405068     0.04800
C1739       C  0.82496677  0.20121100  0.71911031    -0.14500
C1740       C  0.83756559  0.18165048  0.73517183    -0.07800
C1741       C  0.90077188  0.16870658  0.69478371     0.05700
C1742       C  0.90564527  0.14190264  0.68820503    -0.08900
C1743       C  0.93149411  0.13304773  0.68195914     0.00700
C1744       C  0.95263305  0.15135408  0.68127589     0.00600
C1745       C  0.94735292  0.17834157  0.68650968    -0.12500
C1746       C  0.92196299  0.18696483  0.69386586     0.01000
C1747       C  0.93616147  0.10501081  0.67760220     0.40300
C1748       C  0.91873016  0.21404682  0.70300313     0.37000
C1749       C  0.87547497  0.15221310  0.74563592     0.36700
C1750       C  0.82473633  0.22746504  0.67595680     0.37400
N1751       N  0.93990308  0.08249847  0.67419438    -0.43400
N1752       N  0.91625255  0.23559132  0.71077413    -0.43800
N1753       N  0.81556361  0.24306639  0.66131661    -0.41200
N1754       N  0.88660007  0.13806743  0.76038311    -0.42600
H1755       H  0.82927827  0.17655090  0.75460497     0.13600
H1756       H  0.86980400  0.20258921  0.66758486     0.10100
H1757       H  0.88943343  0.12777362  0.68883437     0.11100
H1758       H  0.96370597  0.19231225  0.68721507     0.16900
C1759       C  0.69129414  0.16797366  0.85147580    -0.01300
C1760       C  0.70320801  0.17285634  0.87654973     0.07300
C1761       C  0.72749856  0.18643410  0.87732452    -0.07200
C1762       C  0.73863041  0.19722447  0.85396565     0.04800
C1763       C  0.72524938  0.19483916  0.82929606    -0.14500
C1764       C  0.70278735  0.17849413  0.82803061    -0.07800
C1765       C  0.69076152  0.16499696  0.90246351     0.05700
C1766       C  0.70480018  0.14755864  0.91959500    -0.08900
C1767       C  0.69827061  0.14554935  0.94681104     0.00700
C1768       C  0.67658684  0.16026385  0.95706700     0.00600
C1769       C  0.66078255  0.17536828  0.93932205    -0.12500
C1770       C  0.66807520  0.17843582  0.91233874     0.01000
C1771       C  0.71616007  0.13107144  0.96446998     0.40300
C1772       C  0.65427057  0.19838947  0.89644512     0.37000
C1773       C  0.66709323  0.15283481  0.84948104     0.36700
C1774       C  0.76426253  0.20981639  0.85559614     0.37400
N1775       N  0.73063742  0.11967757  0.97862329    -0.43400
N1776       N  0.64323240  0.21471174  0.88410870    -0.43800
N1777       N  0.78514994  0.21922709  0.85698498    -0.41200
N1778       N  0.64761506  0.14080641  0.84789926    -0.42600
H1779       H  0.69369874  0.17463231  0.80882537     0.13600
H1780       H  0.73740931  0.18933245  0.89642661     0.10100
H1781       H  0.72243693  0.13748413  0.91224726     0.11100
H1782       H  0.64485061  0.18760474  0.94729289     0.16900
C1783       C  0.78162407  0.29418429  0.87755557    -0.01300
C1784       C  0.79514869  0.31859272  0.87492905     0.07300
C1785       C  0.79420313  0.33241027  0.85023088    -0.07200
C1786       C  0.78126401  0.32128995  0.82791558     0.04800
C1787       C  0.76985099  0.29571396  0.83015113    -0.14500
C1788       C  0.76912599  0.28313795  0.85536761    -0.07800
C1789       C  0.80823452  0.33027193  0.89880269     0.05700
C1790       C  0.83105777  0.31771214  0.90944649    -0.08900
C1791       C  0.83836553  0.32134054  0.93632693     0.00700
C1792       C  0.82203678  0.33678186  0.95309130     0.00600
C1793       C  0.80132033  0.35195298  0.94153626    -0.12500
C1794       C  0.79460093  0.34911873  0.91445128     0.01000
C1795       C  0.86084054  0.30674557  0.94714692     0.40300
C1796       C  0.77172001  0.36329293  0.90396106     0.37000
C1797       C  0.77996820  0.28015558  0.90297515     0.36700
C1798       C  0.78048446  0.33613936  0.80299802     0.37400
N1799       N  0.87897469  0.29533150  0.95595739    -0.43400
N1800       N  0.75347701  0.37464283  0.89530869    -0.43800
N1801       N  0.77976162  0.34806896  0.78301245    -0.41200
N1802       N  0.77856117  0.26893316  0.92331747    -0.42600
H1803       H  0.75876080  0.26448272  0.85769468     0.13600
H1804       H  0.80361429  0.35169926  0.84839466     0.10100
H1805       H  0.84165410  0.30315956  0.89756699     0.11100
H1806       H  0.78863723  0.36388621  0.95433863     0.16900
C1807       C  0.62415631  0.17117243  0.77294298    -0.01300
C1808       C  0.61167512  0.18017755  0.79660870     0.07300
C1809       C  0.62485682  0.19859360  0.81265234    -0.07200
C1810       C  0.64880550  0.20989206  0.80451778     0.04800
C1811       C  0.66095240  0.20194197  0.78017339    -0.14500
C1812       C  0.64885104  0.18179087  0.76512296    -0.07800
C1813       C  0.58380092  0.17320016  0.80379468     0.05700
C1814       C  0.57676079  0.14653837  0.80909526    -0.08900
C1815       C  0.55028189  0.13977119  0.81489903     0.00700
C1816       C  0.53068055  0.15988726  0.81603913     0.00600
C1817       C  0.53797560  0.18656261  0.81208890    -0.12500
C1818       C  0.56406949  0.19332719  0.80562137     0.01000
C1819       C  0.54334929  0.11211257  0.81865319     0.40300
C1820       C  0.56957728  0.22089141  0.79902739     0.37000
C1821       C  0.61112719  0.15260334  0.75542792     0.36700
C1822       C  0.65997869  0.23022263  0.82140231     0.37400
N1823       N  0.53759794  0.08998083  0.82172923    -0.43400
N1824       N  0.57387588  0.24296308  0.79366659    -0.43800
N1825       N  0.66877664  0.24666631  0.83482291    -0.41200
N1826       N  0.60059654  0.13776343  0.74139287    -0.42600
H1827       H  0.65774145  0.17563684  0.74636874     0.13600
H1828       H  0.61559254  0.20525147  0.83106434     0.10100
H1829       H  0.59180109  0.13100668  0.80808712     0.11100
H1830       H  0.52276030  0.20200187  0.81217838     0.16900
C1831       C  0.64355328  0.33866043  0.70527728    -0.01300
C1832       C  0.61816577  0.32694226  0.70441962     0.07300
C1833       C  0.61436398  0.30212262  0.71677818    -0.07200
C1834       C  0.63542944  0.28813764  0.72857977     0.04800
C1835       C  0.66140288  0.29885249  0.72822152    -0.14500
C1836       C  0.66503596  0.32459066  0.71721538    -0.07800
C1837       C  0.59467429  0.33898137  0.69060511     0.05700
C1838       C  0.58529717  0.32625779  0.66749421    -0.08900
C1839       C  0.55835987  0.32776143  0.66028236     0.00700
C1840       C  0.54046440  0.34243327  0.67620816     0.00600
C1841       C  0.55063688  0.35815381  0.69695313    -0.12500
C1842       C  0.57754195  0.35654835  0.70425063     0.01000
C1843       C  0.54887924  0.31072823  0.63920512     0.40300
C1844       C  0.58630140  0.37052179  0.72778380     0.37000
C1845       C  0.64793280  0.36465009  0.69352377     0.36700
C1846       C  0.62942265  0.26270958  0.74090986     0.37400
N1847       N  0.54127738  0.29690867  0.62245421    -0.43400
N1848       N  0.59322903  0.38184955  0.74661576    -0.43800
N1849       N  0.62385727  0.24242914  0.75055349    -0.41200
N1850       N  0.65119095  0.38559542  0.68417023    -0.42600
H1851       H  0.68476018  0.33314989  0.71683445     0.13600
H1852       H  0.59469108  0.29336164  0.71678107     0.10100
H1853       H  0.59832785  0.31257083  0.65700181     0.11100
H1854       H  0.53699007  0.36910964  0.70961129     0.16900
C1855       C  0.66961320  0.29334599  0.63920191    -0.01300
C1856       C  0.67821896  0.31743707  0.62727742     0.07300
C1857       C  0.69997800  0.33074800  0.63872149    -0.07200
C1858       C  0.71413301  0.31944197  0.66054271     0.04800
C1859       C  0.70630808  0.29450846  0.67132193    -0.14500
C1860       C  0.68326291  0.28254608  0.66109478    -0.07800
C1861       C  0.66703821  0.32592977  0.60074475     0.05700
C1862       C  0.63932930  0.32927015  0.59806181    -0.08900
C1863       C  0.62679326  0.32507694  0.57329062     0.00700
C1864       C  0.64221511  0.31858900  0.55073928     0.00600
C1865       C  0.66998393  0.32023330  0.55248770    -0.12500
C1866       C  0.68252825  0.32347221  0.57728709     0.01000
C1867       C  0.59815599  0.32511400  0.57194310     0.40300
C1868       C  0.71104947  0.32027945  0.57848482     0.37000
C1869       C  0.64837932  0.27776344  0.62783756     0.36700
C1870       C  0.73740101  0.33294677  0.67024602     0.37400
N1871       N  0.57518368  0.32532560  0.57084290    -0.43400
N1872       N  0.73389769  0.31761390  0.57935013    -0.43800
N1873       N  0.75608746  0.34377991  0.67800837    -0.41200
N1874       N  0.63151346  0.26520832  0.61863049    -0.42600
H1875       H  0.67645486  0.26370469  0.66940945     0.13600
H1876       H  0.70675069  0.34925911  0.62969350     0.10100
H1877       H  0.62728699  0.33183000  0.61588066     0.11100
H1878       H  0.68191921  0.31547650  0.53503983     0.16900
C1879       C  0.77836819  0.18818505  0.62630548    -0.01300
C1880       C  0.79293708  0.16489621  0.63306784     0.07300
C1881       C  0.79138629  0.15459225  0.65930190    -0.07200
C1882       C  0.77688081  0.16813761  0.67911364     0.04800
C1883       C  0.76470038  0.19294057  0.67285113    -0.14500
C1884       C  0.76461093  0.20198615  0.64614187    -0.07800
C1885       C  0.81454105  0.15611664  0.61492009     0.05700
C1886       C  0.83921550  0.16811708  0.61895303    -0.08900
C1887       C  0.85618757  0.17314218  0.59739617     0.00700
C1888       C  0.84899832  0.16478091  0.57144718     0.00600
C1889       C  0.82672181  0.14827583  0.56850611    -0.12500
C1890       C  0.80919504  0.14422319  0.59002437     0.01000
C1891       C  0.87878047  0.19008273  0.60194369     0.40300
C1892       C  0.78460431  0.13037493  0.58540881     0.37000
C1893       C  0.77958933  0.19989703  0.59971539     0.36700
C1894       C  0.77665987  0.15726448  0.70600132     0.37400
N1895       N  0.89652301  0.20402539  0.60604288    -0.43400
N1896       N  0.76497573  0.11912593  0.58159488    -0.43800
N1897       N  0.77653164  0.14842247  0.72753055    -0.41200
N1898       N  0.78071087  0.20922646  0.57842281    -0.42600
H1899       H  0.75497709  0.22079826  0.64102131     0.13600
H1900       H  0.80279287  0.13688586  0.66466214     0.10100
H1901       H  0.84340212  0.17703115  0.63812120     0.11100
H1902       H  0.82109473  0.14154772  0.54869943     0.16900
C1903       C  0.37339456  0.77908680  0.91732078    -0.01300
C1904       C  0.36036932  0.79580697  0.89859230     0.07300
C1905       C  0.35171466  0.82117364  0.90671040    -0.07200
C1906       C  0.35189781  0.82808344  0.93390394     0.04800
C1907       C  0.36042317  0.80911392  0.95325828    -0.14500
C1908       C  0.37313033  0.78572097  0.94451687    -0.07800
C1909       C  0.34739626  0.78400620  0.87480607     0.05700
C1910       C  0.32080010  0.77669346  0.87783094    -0.08900
C1911       C  0.30669458  0.76548260  0.85679499     0.00700
C1912       C  0.31893861  0.76217061  0.83147965     0.00600
C1913       C  0.34610873  0.76800959  0.82879931    -0.12500
C1914       C  0.36049174  0.77862459  0.85045191     0.01000
C1915       C  0.27976920  0.75701909  0.86210865     0.40300
C1916       C  0.38841750  0.78397717  0.84733336     0.37000
C1917       C  0.38399980  0.75350545  0.90952881     0.36700
C1918       C  0.34012729  0.85323089  0.94144278     0.37400
N1919       N  0.25833941  0.75015470  0.86676317    -0.43400
N1920       N  0.41088751  0.78812642  0.84498085    -0.43800
N1921       N  0.33083270  0.87360535  0.94703023    -0.41200
N1922       N  0.39261379  0.73309544  0.90309826    -0.42600
H1923       H  0.38008452  0.77116040  0.95921320     0.13600
H1924       H  0.34198271  0.83430467  0.89225450     0.10100
H1925       H  0.31100715  0.77964216  0.89698829     0.11100
H1926       H  0.35582900  0.76516948  0.80963302     0.16900
C1927       C  0.18291279  0.73531912  0.86013128    -0.01300
C1928       C  0.18384702  0.70868029  0.86982351     0.07300
C1929       C  0.19909140  0.69002606  0.85585714    -0.07200
C1930       C  0.21491400  0.69767315  0.83409680     0.04800
C1931       C  0.21424340  0.72438972  0.82415522    -0.14500
C1932       C  0.19738265  0.74275218  0.83701620    -0.07800
C1933       C  0.17176198  0.70034090  0.89603941     0.05700
C1934       C  0.14411491  0.70208228  0.89989844    -0.08900
C1935       C  0.13283086  0.69675666  0.92521126     0.00700
C1936       C  0.14922288  0.68946614  0.94708491     0.00600
C1937       C  0.17643526  0.68532940  0.94256880    -0.12500
C1938       C  0.18782050  0.69096939  0.91753300     0.01000
C1939       C  0.10449636  0.69958399  0.92861609     0.40300
C1940       C  0.21639589  0.68934537  0.91522801     0.37000
C1941       C  0.16940965  0.75584790  0.87505622     0.36700
C1942       C  0.23315225  0.67778241  0.82414635     0.37400
N1943       N  0.08172934  0.70151097  0.93129946    -0.43400
N1944       N  0.23929687  0.68812793  0.91344207    -0.43800
N1945       N  0.24802169  0.66159228  0.81714911    -0.41200
N1946       N  0.15888590  0.77230400  0.88729670    -0.42600
H1947       H  0.19719155  0.76342486  0.83039269     0.13600
H1948       H  0.20006542  0.66959494  0.86322752     0.10100
H1949       H  0.13147583  0.70844089  0.88338641     0.11100
H1950       H  0.18927129  0.68027209  0.95938413     0.16900
C1951       C  0.22831129  0.88542371  0.74241029    -0.01300
C1952       C  0.20262716  0.88356170  0.73089582     0.07300
C1953       C  0.18812935  0.86000066  0.73485298    -0.07200
C1954       C  0.19940638  0.83798610  0.74834130     0.04800
C1955       C  0.22525385  0.83962007  0.75906542    -0.14500
C1956       C  0.23910230  0.86369791  0.75676445    -0.07800
C1957       C  0.19259488  0.90387703  0.71114803     0.05700
C1958       C  0.18794998  0.89588643  0.68461513    -0.08900
C1959       C  0.18445288  0.91478625  0.66395905     0.00700
C1960       C  0.18547773  0.94219181  0.66975206     0.00600
C1961       C  0.18687626  0.95009771  0.69669561    -0.12500
C1962       C  0.19011443  0.93117878  0.71738972     0.01000
C1963       C  0.18124417  0.90578160  0.63675431     0.40300
C1964       C  0.19178305  0.94025924  0.74471127     0.37000
C1965       C  0.24525401  0.90806484  0.73725310     0.36700
C1966       C  0.18507923  0.81314664  0.74884066     0.37400
N1967       N  0.17870361  0.89852481  0.61495549    -0.43400
N1968       N  0.19310647  0.94750915  0.76662331    -0.43800
N1969       N  0.17369042  0.79317210  0.74906323    -0.41200
N1970       N  0.25895045  0.92608967  0.73307286    -0.42600
H1971       H  0.25942496  0.86466558  0.76398803     0.13600
H1972       H  0.16864031  0.85818030  0.72577648     0.10100
H1973       H  0.18871801  0.87486641  0.67974950     0.11100
H1974       H  0.18751448  0.97114090  0.70140103     0.16900
C1975       C  0.35060036  0.85366212  0.79322063    -0.01300
C1976       C  0.34363211  0.87970871  0.78471657     0.07300
C1977       C  0.32997611  0.88312429  0.76033342    -0.07200
C1978       C  0.31994734  0.86106808  0.74661064     0.04800
C1979       C  0.32303187  0.83516070  0.75777517    -0.14500
C1980       C  0.33966258  0.83161347  0.78021312    -0.07800
C1981       C  0.34387784  0.90243372  0.80379087     0.05700
C1982       C  0.35648386  0.92649857  0.79694136    -0.08900
C1983       C  0.35141642  0.94988840  0.81153400     0.00700
C1984       C  0.33353363  0.94926577  0.83334490     0.00600
C1985       C  0.32318345  0.92464884  0.84168874    -0.12500
C1986       C  0.32762765  0.90155061  0.82688330     0.01000
C1987       C  0.36232128  0.97473340  0.80187697     0.40300
C1988       C  0.31231627  0.87813357  0.83368910     0.37000
C1989       C  0.36706660  0.84944714  0.81663062     0.36700
C1990       C  0.30408779  0.86588686  0.72284371     0.37400
N1991       N  0.37109235  0.99458731  0.79397373    -0.43400
N1992       N  0.30001908  0.85931928  0.83875102    -0.43800
N1993       N  0.29139009  0.86958993  0.70377418    -0.41200
N1994       N  0.38032314  0.84657974  0.83543089    -0.42600
H1995       H  0.34294629  0.81175955  0.78841150     0.13600
H1996       H  0.32492464  0.90308930  0.75335683     0.10100
H1997       H  0.36877183  0.92742695  0.77911316     0.11100
H1998       H  0.30895942  0.92411133  0.85800980     0.16900
C1999       C  0.35372244  0.70501823  0.65464229    -0.01300
C2000       C  0.34719442  0.71358399  0.62838080     0.07300
C2001       C  0.33125276  0.73651336  0.62500274    -0.07200
C2002       C  0.31929129  0.74877605  0.64705693     0.04800
C2003       C  0.32311408  0.73803996  0.67301907    -0.14500
C2004       C  0.34189223  0.71750822  0.67679427    -0.07800
C2005       C  0.35198501  0.69663193  0.60442730     0.05700
C2006       C  0.33806201  0.67251785  0.60269254    -0.08900
C2007       C  0.33347539  0.66069537  0.57777428     0.00700
C2008       C  0.34256481  0.67320130  0.55408530     0.00600
C2009       C  0.35975375  0.69504954  0.55623419    -0.12500
C2010       C  0.36471145  0.70666853  0.58127282     0.01000
C2011       C  0.31669103  0.63750362  0.57654227     0.40300
C2012       C  0.38166448  0.72971300  0.58268297     0.37000
C2013       C  0.37169956  0.68289225  0.65915289     0.36700
C2014       C  0.30243989  0.77186728  0.64260038     0.37400
N2015       N  0.30327684  0.61889735  0.57536872    -0.43400
N2016       N  0.39555251  0.74796193  0.58398170    -0.43800
N2017       N  0.28922099  0.79058163  0.63913949    -0.41200
N2018       N  0.38629345  0.66526713  0.66271983    -0.42600
H2019       H  0.34584188  0.70994881  0.69684265     0.13600
H2020       H  0.32650120  0.74366485  0.60493497     0.10100
H2021       H  0.32849501  0.66435526  0.62041805     0.11100
H2022       H  0.36697590  0.70477574  0.53815887     0.16900
C2023       C  0.17428566  0.83159828  0.58895272    -0.01300
C2024       C  0.19955142  0.83321238  0.60141976     0.07300
C2025       C  0.22107486  0.84236250  0.58606147    -0.07200
C2026       C  0.21844585  0.84698500  0.55850466     0.04800
C2027       C  0.19419041  0.84145048  0.54547033    -0.14500
C2028       C  0.17182915  0.83552965  0.56108121    -0.07800
C2029       C  0.20516868  0.82102842  0.62843849     0.05700
C2030       C  0.19800918  0.79421662  0.63294518    -0.08900
C2031       C  0.20717723  0.77988598  0.65549111     0.00700
C2032       C  0.22356222  0.79250420  0.67441135     0.00600
C2033       C  0.22959525  0.81960254  0.67072216    -0.12500
C2034       C  0.22104238  0.83375406  0.64790628     0.01000
C2035       C  0.20190468  0.75163426  0.65707804     0.40300
C2036       C  0.23061635  0.86063202  0.64430136     0.37000
C2037       C  0.15096577  0.82415464  0.60398595     0.36700
C2038       C  0.24185526  0.85440693  0.54348546     0.37400
N2039       N  0.19783422  0.72895070  0.65810548    -0.43400
N2040       N  0.23899490  0.88193398  0.64159645    -0.43800
N2041       N  0.26067420  0.86024994  0.53154204    -0.41200
N2042       N  0.13223835  0.81810995  0.61596653    -0.42600
H2043       H  0.15310379  0.83132846  0.55126813     0.13600
H2044       H  0.24066065  0.84359002  0.59497745     0.10100
H2045       H  0.18684580  0.78375459  0.61775518     0.11100
H2046       H  0.24243169  0.82939434  0.68504759     0.16900
C2047       C  0.32526705  0.57224948  0.69353456    -0.01300
C2048       C  0.33106973  0.59361255  0.67586259     0.07300
C2049       C  0.33439342  0.58822322  0.64835524    -0.07200
C2050       C  0.32867984  0.56287519  0.63805426     0.04800
C2051       C  0.32088241  0.54220902  0.65562835    -0.14500
C2052       C  0.32071440  0.54685858  0.68333672    -0.07800
C2053       C  0.32740521  0.62173857  0.68480583     0.05700
C2054       C  0.34185180  0.63166754  0.70677544    -0.08900
C2055       C  0.33383454  0.65527014  0.71971954     0.00700
C2056       C  0.31120189  0.66937327  0.71035644     0.00600
C2057       C  0.29915713  0.66105808  0.68637758    -0.12500
C2058       C  0.30635663  0.63727265  0.67417838     0.01000
C2059       C  0.34833630  0.66374857  0.74305374     0.40300
C2060       C  0.28949789  0.62785013  0.65282582     0.37000
C2061       C  0.32032988  0.57638588  0.72172413     0.36700
C2062       C  0.32828160  0.55931480  0.60939297     0.37400
N2063       N  0.36009256  0.67065950  0.76166503    -0.43400
N2064       N  0.27571782  0.62028357  0.63598012    -0.43800
N2065       N  0.32785099  0.55651819  0.58639362    -0.41200
N2066       N  0.31612978  0.57960436  0.74427168    -0.42600
H2067       H  0.31449846  0.53102689  0.69692323     0.13600
H2068       H  0.33881101  0.60450931  0.63460523     0.10100
H2069       H  0.35835057  0.62007837  0.71483695     0.11100
H2070       H  0.28240937  0.67212421  0.67809008     0.16900
C2071       C  0.16751711  0.65590036  0.77789580    -0.01300
C2072       C  0.17659324  0.62924266  0.77984280     0.07300
C2073       C  0.20261620  0.62316882  0.77196135    -0.07200
C2074       C  0.21988690  0.64307412  0.76309664     0.04800
C2075       C  0.21136540  0.67007517  0.76222039    -0.14500
C2076       C  0.18492453  0.67612000  0.76917864    -0.07800
C2077       C  0.15946969  0.60659730  0.78847774     0.05700
C2078       C  0.14014918  0.59737623  0.77067995    -0.08900
C2079       C  0.12986791  0.57157982  0.77344991     0.00700
C2080       C  0.13908981  0.55440990  0.79433326     0.00600
C2081       C  0.15567910  0.56502858  0.81414031    -0.12500
C2082       C  0.16594583  0.59091019  0.81130156     0.01000
C2083       C  0.11139635  0.56252247  0.75335118     0.40300
C2084       C  0.18458907  0.60038641  0.83099083     0.37000
C2085       C  0.14075313  0.66295943  0.78545512     0.36700
C2086       C  0.24626328  0.63501810  0.75486075     0.37400
N2087       N  0.09652126  0.55536468  0.73727709    -0.43400
N2088       N  0.19949118  0.60815937  0.84673119    -0.43800
N2089       N  0.26739265  0.62850877  0.74839401    -0.41200
N2090       N  0.11926076  0.66856063  0.79152681    -0.42600
H2091       H  0.17813093  0.69669354  0.76864896     0.13600
H2092       H  0.20945164  0.60259233  0.77263943     0.10100
H2093       H  0.13478535  0.60945341  0.75329068     0.11100
H2094       H  0.16279509  0.55227119  0.83036644     0.16900
loop_ 
_geom_bond_atom_site_label_1 
_geom_bond_atom_site_label_2 
_geom_bond_distance 
_geom_bond_site_symmetry_2 
_ccdc_geom_bond_type 
O1            C9   1.275       .  A
O1          Co21   1.990       .  S
O2           C10   1.273       .  A
O2          Co22   1.905       .  S
O3           C11   1.275       .  A
O3          Co23   2.010       .  S
O4           C12   1.265       .  A
O4          Co24   1.989       .  S
O5           C11   1.282       .  A
O5          Co22   2.009       .  S
O6           C12   1.269       .  A
O6          Co21   1.996       .  S
O7           C10   1.294       .  A
O7          Co24   2.115       .  S
O8            C9   1.279       .  A
O8          Co23   2.017       .  S
C9         C2075   1.488       .  S
C10        C1955   1.472       .  S
C11        C1931   1.500       .  S
C12        C2032   1.481       .  S
O13          C26   1.281       .  A
O13         Co21   2.031       .  S
O14          C27   1.267       .  A
O14         Co22   1.975       .  S
O15          C28   1.276       .  A
O15         Co23   2.006       .  S
O16          C29   1.266       .  A
O16         Co24   1.885       .  S
O17          C29   1.301       .  A
O17         Co22   2.147       .  S
O18          C28   1.270       .  A
O18         Co21   1.986       .  S
O19          C26   1.272       .  A
O19         Co24   1.981       .  S
O20          C27   1.276       .  A
O20         Co23   2.013       .  S
Co21         O25   2.022       .  S
Co22         O25   1.982       .  S
Co23         O25   2.023       .  S
Co24         O25   1.968       .  S
C26        C2003   1.479       .  S
C27        C1912   1.482       .  S
C28        C2056   1.492       .  S
C29        C1979   1.484       .  S
O30          C38   1.269       .  A
O30         Co50   1.976       .  S
O31          C39   1.267       .  A
O31         Co51   1.975       .  S
O32          C40   1.266       .  A
O32         Co52   2.004       .  S
O33          C41   1.264       .  A
O33         Co53   2.000       .  S
O34          C40   1.270       .  A
O34         Co51   1.991       .  S
O35          C41   1.269       .  A
O35         Co50   1.992       .  S
O36          C39   1.280       .  A
O36         Co53   2.044       .  S
O37          C38   1.280       .  A
O37         Co52   2.035       .  S
C38        C1883   1.482       .  S
C39        C1763   1.480       .  S
C40        C1739   1.490       .  S
C41        C1811   1.490       .  S
O42          C55   1.276       .  A
O42         Co50   2.026       .  S
O43          C56   1.273       .  A
O43         Co51   2.014       .  S
O44          C57   1.269       .  A
O44         Co52   1.997       .  S
O45          C58   1.264       .  A
O45         Co53   1.983       .  S
O46          C58   1.270       .  A
O46         Co51   2.017       .  S
O47          C57   1.268       .  A
O47         Co50   2.003       .  S
O48          C55   1.274       .  A
O48         Co53   1.994       .  S
O49          C56   1.278       .  A
O49         Co52   1.997       .  S
Co50         O54   2.102       .  S
Co51         O54   2.103       .  S
Co52         O54   2.106       .  S
Co53         O54   2.100       .  S
C55        C1835   1.490       .  S
C56        C1715   1.493       .  S
C57        C1859   1.492       .  S
C58        C1787   1.482       .  S
O59          C67   1.284       .  A
O59         Co79   1.900       .  S
O60          C68   1.271       .  A
O60         Co80   2.003       .  S
O61          C69   1.283       .  A
O61         Co81   1.938       .  S
O62          C70   1.267       .  A
O62         Co82   1.997       .  S
O63          C69   1.302       .  A
O63         Co80   2.032       .  S
O64          C70   1.270       .  A
O64         Co79   2.009       .  S
O65          C68   1.267       .  A
O65         Co82   1.982       .  S
O66          C67   1.303       .  A
O66         Co81   2.085       .  S
C67        C1667   1.488       .  S
C68        C1571   1.496       .  S
C69        C1547   1.482       .  S
C70        C1643   1.484       .  S
O71          C84   1.278       .  A
O71         Co79   1.984       .  S
O72          C85   1.274       .  A
O72         Co80   2.009       .  S
O73          C86   1.261       .  A
O73         Co81   2.001       .  S
O74          C87   1.278       .  A
O74         Co82   1.967       .  S
O75          C87   1.317       .  A
O75         Co80   2.119       .  S
O76          C86   1.255       .  A
O76         Co79   1.973       .  S
O77          C84   1.284       .  A
O77         Co82   2.004       .  S
O78          C85   1.261       .  A
O78         Co81   2.014       .  S
Co79         O83   1.882       .  S
Co80         O83   1.984       .  S
Co81         O83   2.045       .  S
Co82         O83   2.012       .  S
C84        C1624   1.471       .  S
C85        C1528   1.499       .  S
C86        C1691   1.479       .  S
C87        C1595   1.483       .  S
C88        C1504   1.502       .  S
C88          C89   1.427       .  A
C88          C93   1.434   1_565  A
C89        C1475   1.517       .  S
C89          C90   1.421       .  A
C90        C1403   1.488       .  S
C90          C91   1.420   1_564  A
C91        C1379   1.504       .  S
C91          C92   1.420       .  A
C92        C1451   1.508       .  S
C92          C93   1.429   1_556  A
C93        C1427   1.505       .  S
N94          C98   1.361   1_565  A
N94          C95   1.364       .  A
N94        C1499   1.446       .  S
C95        C1552   1.482       .  S
C95          C96   1.380       .  A
C96          C97   1.365   1_565  A
C96          H99   1.082       .  S
C97          C98   1.380       .  A
C97         H100   1.083       .  S
C98        C1355   1.478       .  S
N101        C105   1.368       .  A
N101        C102   1.369   1_554  A
N101       C1432   1.461       .  S
C102       C1768   1.476       .  S
C102        C103   1.378       .  A
C103        C104   1.358   1_556  A
C103        H106   1.083       .  S
C104        C105   1.380       .  A
C104        H107   1.083       .  S
C105       C1331   1.476       .  S
N108        C112   1.364       .  A
N108        C109   1.364   1_565  A
N108       C1384   1.449       .  S
C109       C1307   1.476       .  S
C109        C110   1.380       .  A
C110        C111   1.363   1_545  A
C110        H113   1.083       .  S
C111        C112   1.380       .  A
C111        H114   1.083       .  S
C112       C1984   1.484       .  S
N115        C119   1.362       .  A
N115        C116   1.366       .  A
N115       C1456   1.450       .  S
C116       C1288   1.489       .  S
C116        C117   1.381       .  A
C117        C118   1.362       .  A
C117        H120   1.082       .  S
C118        C119   1.379       .  A
C118        H121   1.082       .  S
C119       C1816   1.476       .  S
N122        C126   1.363       .  A
N122        C123   1.364       .  A
N122       C1480   1.455       .  S
C123       C1264   1.491       .  S
C123        C124   1.381       .  A
C124        C125   1.364       .  A
C124        H127   1.083       .  S
C125        C126   1.384       .  A
C125        H128   1.083       .  S
C126       C1672   1.488       .  S
N129        C133   1.359   1_554  A
N129        C130   1.360       .  A
N129       C1408   1.439       .  S
C130       C1240   1.489       .  S
C130        C131   1.383       .  A
C131        C132   1.370   1_554  A
C131        H134   1.082       .  S
C132        C133   1.381       .  A
C132        H135   1.083       .  S
C133       C1907   1.484       .  S
C136       C1187   1.502       .  S
C136        C137   1.418       .  A
C136        C141   1.419   1_556  A
C137       C1211   1.502       .  S
C137        C138   1.429   1_655  A
C138       C1091   1.513       .  S
C138        C139   1.434       .  A
C139       C1115   1.508       .  S
C139        C140   1.434   1_456  A
C140       C1139   1.509       .  S
C140        C141   1.429       .  A
C141       C1163   1.509       .  S
N142        C146   1.362   1_556  A
N142        C143   1.363       .  A
N142       C1120   1.446       .  S
C143       C1936   1.483       .  S
C143        C144   1.382       .  A
C144        C145   1.368   1_556  A
C144        H147   1.083       .  S
C145        C146   1.380       .  A
C145        H148   1.082       .  S
C146       C1067   1.486       .  S
N149        C153   1.371       .  A
N149        C150   1.371       .  A
N149       C1096   1.462       .  S
C150       C2080   1.494       .  S
C150        C151   1.382       .  A
C151        C152   1.362       .  A
C151        H154   1.082       .  S
C152        C153   1.380       .  A
C152        H155   1.083       .  S
C153       C1043   1.492       .  S
N156        C160   1.364   1_455  A
N156        C157   1.367       .  A
N156       C1144   1.455       .  S
C157       C1019   1.493       .  S
C157        C158   1.382       .  A
C158        C159   1.368   1_455  A
C158        H161   1.082       .  S
C159        C160   1.382       .  A
C159        H162   1.083       .  S
C160       C1576   1.486       .  S
N163        C167   1.359       .  A
N163        C164   1.364       .  A
N163       C1168   1.442       .  S
C164        C995   1.491       .  S
C164        C165   1.384       .  A
C165        C166   1.367       .  A
C165        H168   1.082       .  S
C166        C167   1.379       .  A
C166        H169   1.082       .  S
C167       C1648   1.481       .  S
N170        C174   1.361   1_655  A
N170        C171   1.361       .  A
N170       C1216   1.447       .  S
C171       C1720   1.486       .  S
C171        C172   1.382       .  A
C172        C173   1.371   1_655  A
C172        H175   1.082       .  S
C173        C174   1.381       .  A
C173        H176   1.083       .  S
C174        C971   1.487       .  S
N177        C181   1.369   1_554  A
N177        C178   1.373       .  A
N177       C1192   1.460       .  S
C178        C947   1.488       .  S
C178        C179   1.383       .  A
C179        C180   1.359   1_554  A
C179        H182   1.082       .  S
C180        C181   1.376       .  A
C180        H183   1.083       .  S
C181       C1792   1.481       .  S
C184        C803   1.507       .  S
C184        C185   1.432       .  A
C184        C189   1.424       .  A
C185        C827   1.502       .  S
C185        C186   1.427       .  A
C186        C923   1.519       .  S
C186        C187   1.422       .  A
C187        C899   1.495       .  S
C187        C188   1.428       .  A
C188        C875   1.504       .  S
C188        C189   1.426       .  A
C189        C856   1.510       .  S
N190        C194   1.366       .  A
N190        C191   1.362       .  A
N190        C928   1.449       .  S
C191       C1840   1.480       .  S
C191        C192   1.380       .  A
C192        C193   1.365       .  A
C192        H195   1.083       .  S
C193        C194   1.381       .  A
C193        H196   1.083       .  S
C194        C784   1.482       .  S
N197        C201   1.360       .  A
N197        C198   1.365       .  A
N197        C808   1.446       .  S
C198        C755   1.484       .  S
C198        C199   1.381       .  A
C199        C200   1.367       .  A
C199        H202   1.082       .  S
C200        C201   1.380       .  A
C200        H203   1.082       .  S
C201       C2008   1.481       .  S
N204        C208   1.354       .  A
N204        C205   1.354       .  A
N204        C880   1.439       .  S
C205       C1619   1.480       .  S
C205        C206   1.384       .  A
C206        C207   1.370       .  A
C206        H209   1.082       .  S
C207        C208   1.380       .  A
C207        H210   1.082       .  S
C208        C731   1.470       .  S
N211        C215   1.369       .  A
N211        C212   1.365       .  A
N211        C851   1.454       .  S
C212       C1696   1.484       .  S
C212        C213   1.378       .  A
C213        C214   1.362       .  A
C213        H216   1.083       .  S
C214        C215   1.384       .  A
C214        H217   1.083       .  S
C215        C707   1.495       .  S
N218        C222   1.366       .  A
N218        C219   1.364       .  A
N218        C832   1.452       .  S
C219        C683   1.489       .  S
C219        C220   1.382       .  A
C220        C221   1.364       .  A
C220        H223   1.082       .  S
C221        C222   1.381       .  A
C221        H224   1.083       .  S
C222       C2051   1.482       .  S
N225        C229   1.369       .  A
N225        C226   1.368       .  A
N225        C904   1.461       .  S
C226       C1864   1.481       .  S
C226        C227   1.378       .  A
C227        C228   1.361       .  A
C227        H230   1.083       .  S
C228        C229   1.384       .  A
C228        H231   1.083       .  S
C229        C664   1.495       .  S
C232        C635   1.509       .  S
C232        C233   1.428       .  A
C232        C237   1.432       .  A
C233        C520   1.505       .  S
C233        C234   1.426   1_455  A
C234        C539   1.497       .  S
C234        C235   1.418   1_565  A
C235        C563   1.504       .  S
C235        C236   1.423   1_655  A
C236        C592   1.507       .  S
C236        C237   1.427   1_545  A
C237        C611   1.506       .  S
N238        C242   1.365       .  A
N238        C239   1.362   1_655  A
N238        C587   1.453   1_655  S
C239        C491   1.485       .  S
C239        C240   1.376       .  A
C240        C241   1.364   1_455  A
C240        H243   1.083       .  S
C241        C242   1.385       .  A
C241        H244   1.083       .  S
C242       C1744   1.482       .  S
N245        C249   1.368   1_565  A
N245        C246   1.369       .  A
N245        C616   1.470       .  S
C246       C1960   1.484       .  S
C246        C247   1.383       .  A
C247        C248   1.361       .  A
C247        H250   1.084       .  S
C248        C249   1.380   1_565  A
C248        H251   1.082       .  S
C249        C467   1.497       .  S
N252        C256   1.362       .  A
N252        C253   1.361       .  A
N252        C640   1.447       .  S
C253       C2027   1.480       .  S
C253        C254   1.381       .  A
C254        C255   1.365       .  A
C254        H257   1.082       .  S
C255        C256   1.381       .  A
C255        H258   1.083       .  S
C256        C443   1.479       .  S
N259        C263   1.359       .  A
N259        C260   1.361       .  A
N259        C568   1.447       .  S
C260        C424   1.486       .  S
C260        C261   1.384       .  A
C261        C262   1.369       .  A
C261        H264   1.083       .  S
C262        C263   1.381       .  A
C262        H265   1.082       .  S
C263       C1888   1.482       .  S
N266        C270   1.359       .  A
N266        C267   1.357   1_565  A
N266        C544   1.440       .  S
C267        C395   1.484       .  S
C267        C268   1.380       .  A
C268        C269   1.372   1_545  A
C268        H271   1.082       .  S
C269        C270   1.382       .  A
C269        H272   1.082       .  S
C270       C1523   1.482       .  S
N273        C277   1.368       .  A
N273        C274   1.361   1_655  A
N273        C515   1.453       .  S
C274        C371   1.471       .  S
C274        C275   1.377       .  A
C275        C276   1.361   1_455  A
C275        H278   1.082       .  S
C276        C277   1.385       .  A
C276        H279   1.083       .  S
C277       C1600   1.489       .  S
O280        C288   1.267       .  A
O280       Co300   2.038       .  S
O281        C289   1.280       .  A
O281       Co301   1.998       .  S
O282        C290   1.301       .  A
O282       Co302   2.103       .  S
O283        C291   1.261       .  A
O283       Co303   2.048       .  S
O284        C290   1.278       .  A
O284       Co301   1.907       .  S
O285        C291   1.252       .  A
O285       Co300   1.972       .  S
O286        C289   1.276       .  A
O286       Co303   2.003       .  S
O287        C288   1.251       .  A
O287       Co302   1.965       .  S
C288        C472   1.489       .  S
C289        C688   1.498       .  S
C290        C496   1.478       .  S
C291        C779   1.487       .  S
O292        C305   1.291       .  A
O292       Co300   2.064       .  S
O293        C306   1.256       .  A
O293       Co301   2.035       .  S
O294        C307   1.270       .  A
O294       Co302   2.045       .  S
O295        C308   1.284       .  A
O295       Co303   2.017       .  S
O296        C308   1.277       .  A
O296       Co301   2.012       .  S
O297        C307   1.248       .  A
O297       Co300   1.951       .  S
O298        C305   1.282       .  A
O298       Co303   1.930       .  S
O299        C306   1.246       .  A
O299       Co302   1.967       .  S
Co300       O304   2.117       .  S
Co301       O304   1.977       .  S
Co302       O304   2.130       .  S
Co303       O304   1.998       .  S
C305       C1283   1.478       .  S
C306        C976   1.476       .  S
C307       C1312   1.500       .  S
C308       C1048   1.504       .  S
O309        C317   1.285       .  A
O309       Co329   2.009       .  S
O310        C318   1.244       .  A
O310       Co330   2.017       .  S
O311        C319   1.292       .  A
O311       Co331   2.017       .  S
O312        C320   1.248       .  A
O312       Co332   1.986       .  S
O313        C319   1.286       .  A
O313       Co330   2.001       .  S
O314        C320   1.248       .  A
O314       Co329   2.005       .  S
O315        C318   1.245       .  A
O315       Co332   1.997       .  S
O316        C317   1.290       .  A
O316       Co331   2.016       .  S
C317        C400   1.484       .  S
C318       C1000   1.490       .  S
C319        C952   1.501       .  S
C320        C419   1.498       .  S
O321        C334   1.285       .  A
O321       Co329   1.897       .  S
O322        C335   1.268       .  A
O322       Co330   1.971       .  S
O323        C336   1.274       .  A
O323       Co331   2.017       .  S
O324        C337   1.312       .  A
O324       Co332   2.127       .  S
O325        C337   1.285       .  A
O325       Co330   1.871       .  S
O326        C336   1.272       .  A
O326       Co329   1.976       .  S
O327        C334   1.305       .  A
O327       Co332   2.098       .  S
O328        C335   1.272       .  A
O328       Co331   2.006       .  S
Co329       O333   1.970       .  S
Co330       O333   1.967       .  S
Co331       O333   2.027       .  S
Co332       O333   2.094       .  S
C334        C659   1.472       .  S
C335       C1336   1.484       .  S
C336       C1360   1.492       .  S
C337        C736   1.488       .  S
O338        C346   1.277       .  A
O338       Co358   1.927       .  S
O339        C347   1.283       .  A
O339       Co359   1.998       .  S
O340        C348   1.308       .  A
O340       Co360   2.108       .  S
O341        C349   1.272       .  A
O341       Co361   2.001       .  S
O342        C348   1.289       .  A
O342       Co359   1.906       .  S
O343        C349   1.274       .  A
O343       Co358   2.006       .  S
O344        C347   1.281       .  A
O344       Co361   2.014       .  S
O345        C346   1.292       .  A
O345       Co360   2.069       .  S
C346        C712   1.494       .  S
C347       C1024   1.489       .  S
C348        C760   1.489       .  S
C349       C1072   1.498       .  S
O350        C363   1.274       .  A
O350       Co358   1.979       .  S
O351        C364   1.257       .  A
O351       Co359   2.014       .  S
O352        C365   1.276       .  A
O352       Co360   1.915       .  S
O353        C366   1.284       .  A
O353       Co361   2.000       .  S
O354        C366   1.282       .  A
O354       Co359   1.992       .  S
O355        C365   1.296       .  A
O355       Co358   2.099       .  S
O356        C363   1.286       .  A
O356       Co361   2.025       .  S
O357        C364   1.257       .  A
O357       Co360   1.994       .  S
Co358       O362   1.956       .  S
Co359       O362   1.887       .  S
Co360       O362   2.004       .  S
Co361       O362   1.981       .  S
C363       C1235   1.495       .  S
C364        C448   1.480       .  S
C365       C1259   1.486       .  S
C366        C376   1.478       .  S
C367        C368   1.417       .  A
C367        C372   1.393       .  A
C367        C381   1.446       .  S
C368        C373   1.489       .  S
C368        C369   1.408       .  A
C369        C370   1.403       .  A
C369        H388   1.084       .  S
C370        C371   1.407       .  A
C370        C382   1.443       .  S
C371        C372   1.398       .  A
C372        H387   1.086       .  S
C373        C374   1.406       .  A
C373        C378   1.410       .  A
C374        C375   1.401       .  A
C374        H389   1.085       .  S
C375        C376   1.411       .  A
C375        C379   1.443       .  S
C376        C377   1.406       .  A
C377        C378   1.397       .  A
C377        H390   1.085       .  S
C378        C380   1.444       .  S
C379        N383   1.157       .  T
C380        N384   1.157       .  T
C381        N386   1.157       .  T
C382        N385   1.157       .  T
C391        C392   1.413       .  A
C391        C396   1.403       .  A
C391        C405   1.443       .  S
C392        C397   1.493       .  S
C392        C393   1.405       .  A
C393        C394   1.405       .  A
C393        H412   1.083       .  S
C394        C395   1.410       .  A
C394        C406   1.443       .  S
C395        C396   1.403       .  A
C396        H411   1.085       .  S
C397        C398   1.400       .  A
C397        C402   1.413       .  A
C398        C399   1.395       .  A
C398        H413   1.086       .  S
C399        C400   1.413       .  A
C399        C403   1.443       .  S
C400        C401   1.407       .  A
C401        C402   1.413       .  A
C401        H414   1.084       .  S
C402        C404   1.442       .  S
C403        N407   1.156       .  T
C404        N408   1.157       .  T
C405        N410   1.157       .  T
C406        N409   1.157       .  T
C415        C416   1.406       .  A
C415        C420   1.398       .  A
C415        C429   1.445       .  S
C416        C421   1.489       .  S
C416        C417   1.405       .  A
C417        C418   1.409       .  A
C417        H436   1.084       .  S
C418        C419   1.416       .  A
C418        C430   1.443       .  S
C419        C420   1.413       .  A
C420        H435   1.084       .  S
C421        C422   1.407       .  A
C421        C426   1.409       .  A
C422        C423   1.410       .  A
C422        H437   1.084       .  S
C423        C424   1.410       .  A
C423        C427   1.442       .  S
C424        C425   1.406       .  A
C425        C426   1.397       .  A
C425        H438   1.086       .  S
C426        C428   1.446       .  S
C427        N431   1.157       .  T
C428        N432   1.157       .  T
C429        N434   1.157       .  T
C430        N433   1.157       .  T
C439        C440   1.409       .  A
C439        C444   1.406       .  A
C439        C453   1.442       .  S
C440        C445   1.488       .  S
C440        C441   1.402       .  A
C441        C442   1.400       .  A
C441        H460   1.084       .  S
C442        C443   1.412       .  A
C442        C454   1.444       .  S
C443        C444   1.406       .  A
C444        H459   1.085       .  S
C445        C446   1.404       .  A
C445        C450   1.407       .  A
C446        C447   1.404       .  A
C446        H461   1.084       .  S
C447        C448   1.411       .  A
C447        C451   1.444       .  S
C448        C449   1.407       .  A
C449        C450   1.406       .  A
C449        H462   1.083       .  S
C450        C452   1.443       .  S
C451        N455   1.157       .  T
C452        N456   1.157       .  T
C453        N458   1.157       .  T
C454        N457   1.157       .  T
C463        C464   1.414       .  A
C463        C468   1.399       .  A
C463        C477   1.444       .  S
C464        C469   1.505       .  S
C464        C465   1.410       .  A
C465        C466   1.409       .  A
C465        H484   1.084       .  S
C466        C467   1.414       .  A
C466        C478   1.444       .  S
C467        C468   1.406       .  A
C468        H483   1.085       .  S
C469        C470   1.408       .  A
C469        C474   1.417       .  A
C470        C471   1.405       .  A
C470        H485   1.084       .  S
C471        C472   1.410       .  A
C471        C475   1.442       .  S
C472        C473   1.405       .  A
C473        C474   1.406       .  A
C473        H486   1.084       .  S
C474        C476   1.444       .  S
C475        N479   1.157       .  T
C476        N480   1.157       .  T
C477        N482   1.157       .  T
C478        N481   1.158       .  T
C487        C488   1.412       .  A
C487        C492   1.399       .  A
C487        C501   1.444       .  S
C488        C493   1.493       .  S
C488        C489   1.405       .  A
C489        C490   1.409       .  A
C489        H508   1.085       .  S
C490        C491   1.415       .  A
C490        C502   1.444       .  S
C491        C492   1.401       .  A
C492        H507   1.085       .  S
C493        C494   1.405       .  A
C493        C498   1.413       .  A
C494        C495   1.404       .  A
C494        H509   1.085       .  S
C495        C496   1.410       .  A
C495        C499   1.442       .  S
C496        C497   1.402       .  A
C497        C498   1.403       .  A
C497        H510   1.085       .  S
C498        C500   1.444       .  S
C499        N503   1.157       .  T
C500        N504   1.157       .  T
C501        N506   1.157       .  T
C502        N505   1.157   1_455  T
C511        C512   1.414   1_455  A
C511        C516   1.407       .  A
C511        C525   1.445       .  S
C512        C517   1.502   1_655  S
C512        C513   1.406       .  A
C513        C514   1.405       .  A
C513        H532   1.083       .  S
C514        C515   1.412       .  A
C514        C526   1.442       .  S
C515        C516   1.409   1_655  A
C516        H531   1.081       .  S
C517        C518   1.406       .  A
C517        C522   1.415       .  A
C518        C519   1.404       .  A
C518        H533   1.085       .  S
C519        C520   1.414       .  A
C519        C523   1.443       .  S
C520        C521   1.406       .  A
C521        C522   1.407       .  A
C521        H534   1.084       .  S
C522        C524   1.443   1_455  S
C523        N527   1.157   1_565  T
C524        N528   1.157       .  T
C525        N530   1.158       .  T
C526        N529   1.157       .  T
C535        C536   1.412   1_545  A
C535        C540   1.403       .  A
C535        C549   1.444       .  S
C536        C541   1.492       .  S
C536        C537   1.405       .  A
C537        C538   1.404       .  A
C537        H556   1.084       .  S
C538        C539   1.411       .  A
C538        C550   1.443       .  S
C539        C540   1.404   1_565  A
C540        H555   1.084       .  S
C541        C542   1.409       .  A
C541        C546   1.411       .  A
C542        C543   1.407       .  A
C542        H557   1.085       .  S
C543        C544   1.406       .  A
C543        C547   1.441       .  S
C544        C545   1.403       .  A
C545        C546   1.399       .  A
C545        H558   1.085       .  S
C546        C548   1.444       .  S
C547        N551   1.157       .  T
C548        N552   1.157       .  T
C549        N554   1.157       .  T
C550        N553   1.157       .  T
C559        C560   1.414       .  A
C559        C564   1.409       .  A
C559        C573   1.443       .  S
C560        C565   1.498       .  S
C560        C561   1.406       .  A
C561        C562   1.402       .  A
C561        H580   1.084       .  S
C562        C563   1.410       .  A
C562        C574   1.443       .  S
C563        C564   1.407       .  A
C564        H579   1.083       .  S
C565        C566   1.402       .  A
C565        C570   1.416       .  A
C566        C567   1.398       .  A
C566        H581   1.085       .  S
C567        C568   1.415       .  A
C567        C571   1.442       .  S
C568        C569   1.404       .  A
C569        C570   1.411       .  A
C569        H582   1.083       .  S
C570        C572   1.442       .  S
C571        N575   1.157       .  T
C572        N576   1.157       .  T
C573        N578   1.157       .  T
C574        N577   1.157   1_655  T
C583        C584   1.409       .  A
C583        C588   1.401       .  A
C583        C597   1.444       .  S
C584        C589   1.496       .  S
C584        C585   1.408   1_455  A
C585        C586   1.412       .  A
C585        H604   1.084       .  S
C586        C587   1.411   1_655  A
C586        C598   1.439       .  S
C587        C588   1.410       .  A
C588        H603   1.083       .  S
C589        C590   1.403   1_455  A
C589        C594   1.412       .  A
C590        C591   1.406       .  A
C590        H605   1.085       .  S
C591        C592   1.416   1_655  A
C591        C595   1.443       .  S
C592        C593   1.405       .  A
C593        C594   1.406       .  A
C593        H606   1.085       .  S
C594        C596   1.442       .  S
C595        N599   1.157   1_545  T
C596        N600   1.157       .  T
C597        N602   1.157       .  T
C598        N601   1.156       .  T
C607        C608   1.419       .  A
C607        C612   1.405       .  A
C607        C621   1.443       .  S
C608        C613   1.513       .  S
C608        C609   1.410   1_565  A
C609        C610   1.405       .  A
C609        H628   1.083       .  S
C610        C611   1.411   1_545  A
C610        C622   1.442       .  S
C611        C612   1.405       .  A
C612        H627   1.084       .  S
C613        C614   1.407       .  A
C613        C618   1.415   1_565  A
C614        C615   1.407       .  A
C614        H629   1.084       .  S
C615        C616   1.421       .  A
C615        C619   1.440       .  S
C616        C617   1.416   1_565  A
C617        C618   1.405       .  A
C617        H630   1.081       .  S
C618        C620   1.444       .  S
C619        N623   1.158       .  T
C620        N624   1.157       .  T
C621        N626   1.157       .  T
C622        N625   1.157       .  T
C631        C632   1.411       .  A
C631        C636   1.407       .  A
C631        C645   1.442       .  S
C632        C637   1.498       .  S
C632        C633   1.403       .  A
C633        C634   1.406       .  A
C633        H652   1.085       .  S
C634        C635   1.418       .  A
C634        C646   1.441       .  S
C635        C636   1.407       .  A
C636        H651   1.084       .  S
C637        C638   1.404       .  A
C637        C642   1.414       .  A
C638        C639   1.405       .  A
C638        H653   1.085       .  S
C639        C640   1.412       .  A
C639        C643   1.442       .  S
C640        C641   1.403       .  A
C641        C642   1.409       .  A
C641        H654   1.084       .  S
C642        C644   1.443       .  S
C643        N647   1.157       .  T
C644        N648   1.157       .  T
C645        N650   1.157       .  T
C646        N649   1.157       .  T
C655        C656   1.415       .  A
C655        C660   1.396       .  A
C655        C669   1.445       .  S
C656        C661   1.496       .  S
C656        C657   1.410       .  A
C657        C658   1.407       .  A
C657        H676   1.084       .  S
C658        C659   1.408       .  A
C658        C670   1.443       .  S
C659        C660   1.401       .  A
C660        H675   1.086       .  S
C661        C662   1.409       .  A
C661        C666   1.410       .  A
C662        C663   1.406       .  A
C662        H677   1.085       .  S
C663        C664   1.413       .  A
C663        C667   1.442       .  S
C664        C665   1.408       .  A
C665        C666   1.397       .  A
C665        H678   1.086       .  S
C666        C668   1.444       .  S
C667        N671   1.157       .  T
C668        N672   1.157       .  T
C669        N674   1.157       .  T
C670        N673   1.157       .  T
C679        C680   1.419       .  A
C679        C684   1.404       .  A
C679        C693   1.444       .  S
C680        C685   1.500       .  S
C680        C681   1.405       .  A
C681        C682   1.398       .  A
C681        H700   1.083       .  S
C682        C683   1.412       .  A
C682        C694   1.444       .  S
C683        C684   1.403       .  A
C684        H699   1.084       .  S
C685        C686   1.402       .  A
C685        C690   1.417       .  A
C686        C687   1.396       .  A
C686        H701   1.085       .  S
C687        C688   1.422       .  A
C687        C691   1.446       .  S
C688        C689   1.408       .  A
C689        C690   1.407       .  A
C689        H702   1.084       .  S
C690        C692   1.443       .  S
C691        N695   1.158       .  T
C692        N696   1.157       .  T
C693        N698   1.157       .  T
C694        N697   1.157       .  T
C703        C704   1.411       .  A
C703        C708   1.403       .  A
C703        C717   1.444       .  S
C704        C709   1.502       .  S
C704        C705   1.408       .  A
C705        C706   1.406       .  A
C705        H724   1.085       .  S
C706        C707   1.411       .  A
C706        C718   1.440       .  S
C707        C708   1.411       .  A
C708        H723   1.085       .  S
C709        C710   1.411       .  A
C709        C714   1.413       .  A
C710        C711   1.413       .  A
C710        H725   1.084       .  S
C711        C712   1.414       .  A
C711        C715   1.443       .  S
C712        C713   1.406       .  A
C713        C714   1.392       .  A
C713        H726   1.083       .  S
C714        C716   1.446       .  S
C715        N719   1.157       .  T
C716        N720   1.157       .  T
C717        N722   1.158       .  T
C718        N721   1.157       .  T
C727        C728   1.416       .  A
C727        C732   1.397       .  A
C727        C741   1.445       .  S
C728        C733   1.488       .  S
C728        C729   1.405       .  A
C729        C730   1.401       .  A
C729        H748   1.084       .  S
C730        C731   1.408       .  A
C730        C742   1.443       .  S
C731        C732   1.399       .  A
C732        H747   1.086       .  S
C733        C734   1.400       .  A
C733        C738   1.413       .  A
C734        C735   1.398       .  A
C734        H749   1.085       .  S
C735        C736   1.419       .  A
C735        C739   1.442       .  S
C736        C737   1.406       .  A
C737        C738   1.400       .  A
C737        H750   1.084       .  S
C738        C740   1.444       .  S
C739        N743   1.156       .  T
C740        N744   1.157       .  T
C741        N746   1.157       .  T
C742        N745   1.157       .  T
C751        C752   1.410       .  A
C751        C756   1.404       .  A
C751        C765   1.443       .  S
C752        C757   1.495       .  S
C752        C753   1.406       .  A
C753        C754   1.406       .  A
C753        H772   1.084       .  S
C754        C755   1.411       .  A
C754        C766   1.443       .  S
C755        C756   1.407       .  A
C756        H771   1.085       .  S
C757        C758   1.408       .  A
C757        C762   1.408       .  A
C758        C759   1.408       .  A
C758        H773   1.084       .  S
C759        C760   1.412       .  A
C759        C763   1.444       .  S
C760        C761   1.408       .  A
C761        C762   1.403       .  A
C761        H774   1.084       .  S
C762        C764   1.443       .  S
C763        N767   1.157       .  T
C764        N768   1.157       .  T
C765        N770   1.157       .  T
C766        N769   1.157       .  T
C775        C776   1.410       .  A
C775        C780   1.406       .  A
C775        C789   1.443       .  S
C776        C781   1.496       .  S
C776        C777   1.407       .  A
C777        C778   1.406       .  A
C777        H796   1.085       .  S
C778        C779   1.412       .  A
C778        C790   1.444       .  S
C779        C780   1.404       .  A
C780        H795   1.080       .  S
C781        C782   1.404       .  A
C781        C786   1.411       .  A
C782        C783   1.405       .  A
C782        H797   1.084       .  S
C783        C784   1.412       .  A
C783        C787   1.443       .  S
C784        C785   1.407       .  A
C785        C786   1.407       .  A
C785        H798   1.085       .  S
C786        C788   1.443       .  S
C787        N791   1.157       .  T
C788        N792   1.157       .  T
C789        N794   1.157       .  T
C790        N793   1.157       .  T
C799        C800   1.415       .  A
C799        C804   1.403       .  A
C799        C813   1.444       .  S
C800        C805   1.502       .  S
C800        C801   1.408       .  A
C801        C802   1.407       .  A
C801        H820   1.084       .  S
C802        C803   1.412       .  A
C802        C814   1.443       .  S
C803        C804   1.405       .  A
C804        H819   1.084       .  S
C805        C806   1.406       .  A
C805        C810   1.416       .  A
C806        C807   1.403       .  A
C806        H821   1.085       .  S
C807        C808   1.410       .  A
C807        C811   1.442       .  S
C808        C809   1.404       .  A
C809        C810   1.409       .  A
C809        H822   1.083       .  S
C810        C812   1.443       .  S
C811        N815   1.157       .  T
C812        N816   1.157       .  T
C813        N818   1.157       .  T
C814        N817   1.157       .  T
C823        C824   1.419       .  A
C823        C828   1.403       .  A
C823        C837   1.443       .  S
C824        C829   1.508       .  S
C824        C825   1.408       .  A
C825        C826   1.397       .  A
C825        H844   1.083       .  S
C826        C827   1.412       .  A
C826        C838   1.444       .  S
C827        C828   1.405       .  A
C828        H843   1.084       .  S
C829        C830   1.410       .  A
C829        C834   1.419       .  A
C830        C831   1.404       .  A
C830        H845   1.082       .  S
C831        C832   1.411       .  A
C831        C835   1.441       .  S
C832        C833   1.405       .  A
C833        C834   1.398       .  A
C833        H846   1.083       .  S
C834        C836   1.445       .  S
C835        N839   1.157       .  T
C836        N840   1.157       .  T
C837        N842   1.157       .  T
C838        N841   1.157       .  T
C847        C848   1.413       .  A
C847        C852   1.403       .  A
C847        C861   1.445       .  S
C848        C853   1.504       .  S
C848        C849   1.409       .  A
C849        C850   1.413       .  A
C849        H868   1.084       .  S
C850        C851   1.411       .  A
C850        C862   1.440       .  S
C851        C852   1.409       .  A
C852        H867   1.084       .  S
C853        C854   1.407       .  A
C853        C858   1.415       .  A
C854        C855   1.409       .  A
C854        H869   1.084       .  S
C855        C856   1.415       .  A
C855        C859   1.442       .  S
C856        C857   1.406       .  A
C857        C858   1.404       .  A
C857        H870   1.085       .  S
C858        C860   1.443       .  S
C859        N863   1.157       .  T
C860        N864   1.157       .  T
C861        N866   1.157       .  T
C862        N865   1.157       .  T
C871        C872   1.409       .  A
C871        C876   1.404       .  A
C871        C885   1.443       .  S
C872        C877   1.487       .  S
C872        C873   1.401       .  A
C873        C874   1.402       .  A
C873        H892   1.085       .  S
C874        C875   1.415       .  A
C874        C886   1.442       .  S
C875        C876   1.408       .  A
C876        H891   1.085       .  S
C877        C878   1.402       .  A
C877        C882   1.412       .  A
C878        C879   1.400       .  A
C878        H893   1.085       .  S
C879        C880   1.409       .  A
C879        C883   1.443       .  S
C880        C881   1.402       .  A
C881        C882   1.406       .  A
C881        H894   1.084       .  S
C882        C884   1.443       .  S
C883        N887   1.157       .  T
C884        N888   1.157       .  T
C885        N890   1.157       .  T
C886        N889   1.157       .  T
C895        C896   1.423       .  A
C895        C900   1.401       .  A
C895        C909   1.444       .  S
C896        C901   1.509       .  S
C896        C897   1.409       .  A
C897        C898   1.401       .  A
C897        H916   1.083       .  S
C898        C899   1.408       .  A
C898        C910   1.442       .  S
C899        C900   1.400       .  A
C900        H915   1.085       .  S
C901        C902   1.406       .  A
C901        C906   1.417       .  A
C902        C903   1.403       .  A
C902        H917   1.083       .  S
C903        C904   1.421       .  A
C903        C907   1.441       .  S
C904        C905   1.408       .  A
C905        C906   1.402       .  A
C905        H918   1.077       .  S
C906        C908   1.445       .  S
C907        N911   1.157       .  T
C908        N912   1.157       .  T
C909        N914   1.157       .  T
C910        N913   1.157       .  T
C919        C920   1.416       .  A
C919        C924   1.411       .  A
C919        C933   1.444       .  S
C920        C925   1.511       .  S
C920        C921   1.407       .  A
C921        C922   1.408       .  A
C921        H940   1.084       .  S
C922        C923   1.415       .  A
C922        C934   1.441       .  S
C923        C924   1.409       .  A
C924        H939   1.085       .  S
C925        C926   1.408       .  A
C925        C930   1.418       .  A
C926        C927   1.408       .  A
C926        H941   1.084       .  S
C927        C928   1.411       .  A
C927        C931   1.442       .  S
C928        C929   1.403       .  A
C929        C930   1.411       .  A
C929        H942   1.084       .  S
C930        C932   1.443       .  S
C931        N935   1.157       .  T
C932        N936   1.157       .  T
C933        N938   1.157       .  T
C934        N937   1.157       .  T
C943        C944   1.411       .  A
C943        C948   1.396       .  A
C943        C957   1.445       .  S
C944        C949   1.496       .  S
C944        C945   1.411       .  A
C945        C946   1.409       .  A
C945        H964   1.083       .  S
C946        C947   1.410       .  A
C946        C958   1.442       .  S
C947        C948   1.406       .  A
C948        H963   1.086       .  S
C949        C950   1.410       .  A
C949        C954   1.409       .  A
C950        C951   1.411       .  A
C950        H965   1.085       .  S
C951        C952   1.415       .  A
C951        C955   1.442       .  S
C952        C953   1.412       .  A
C953        C954   1.394       .  A
C953        H966   1.085       .  S
C954        C956   1.446       .  S
C955        N959   1.157       .  T
C956        N960   1.157       .  T
C957        N962   1.157       .  T
C958        N961   1.157       .  T
C967        C968   1.411       .  A
C967        C972   1.406       .  A
C967        C981   1.443       .  S
C968        C973   1.493       .  S
C968        C969   1.404       .  A
C969        C970   1.402       .  A
C969        H988   1.084       .  S
C970        C971   1.412       .  A
C970        C982   1.443       .  S
C971        C972   1.405       .  A
C972        H987   1.083       .  S
C973        C974   1.406       .  A
C973        C978   1.412       .  A
C974        C975   1.403       .  A
C974        H989   1.084       .  S
C975        C976   1.409       .  A
C975        C979   1.444       .  S
C976        C977   1.402       .  A
C977        C978   1.404       .  A
C977        H990   1.083       .  S
C978        C980   1.442       .  S
C979        N983   1.157       .  T
C980        N984   1.157       .  T
C981        N986   1.157       .  T
C982        N985   1.157       .  T
C991        C992   1.417       .  A
C991        C996   1.408       .  A
C991       C1005   1.442       .  S
C992        C997   1.501       .  S
C992        C993   1.402       .  A
C993        C994   1.403       .  A
C993       H1012   1.085       .  S
C994        C995   1.415       .  A
C994       C1006   1.444       .  S
C995        C996   1.403       .  A
C996       H1011   1.085       .  S
C997        C998   1.410       .  A
C997       C1002   1.414       .  A
C998        C999   1.413       .  A
C998       H1013   1.084       .  S
C999       C1000   1.412       .  A
C999       C1003   1.442       .  S
C1000      C1001   1.405       .  A
C1001      C1002   1.400       .  A
C1001      H1014   1.085       .  S
C1002      C1004   1.445       .  S
C1003      N1007   1.157       .  T
C1004      N1008   1.157       .  T
C1005      N1010   1.156       .  T
C1006      N1009   1.157       .  T
C1015      C1016   1.416       .  A
C1015      C1020   1.406       .  A
C1015      C1029   1.444       .  S
C1016      C1021   1.497       .  S
C1016      C1017   1.402       .  A
C1017      C1018   1.402       .  A
C1017      H1036   1.085       .  S
C1018      C1019   1.417       .  A
C1018      C1030   1.444       .  S
C1019      C1020   1.404       .  A
C1020      H1035   1.084       .  S
C1021      C1022   1.402       .  A
C1021      C1026   1.416       .  A
C1022      C1023   1.398       .  A
C1022      H1037   1.085       .  S
C1023      C1024   1.417       .  A
C1023      C1027   1.445       .  S
C1024      C1025   1.406       .  A
C1025      C1026   1.410       .  A
C1025      H1038   1.085       .  S
C1026      C1028   1.443       .  S
C1027      N1031   1.157       .  T
C1028      N1032   1.157       .  T
C1029      N1034   1.157       .  T
C1030      N1033   1.157       .  T
C1039      C1040   1.419       .  A
C1039      C1044   1.409       .  A
C1039      C1053   1.440       .  S
C1040      C1045   1.503       .  S
C1040      C1041   1.403       .  A
C1041      C1042   1.401       .  A
C1041      H1060   1.084       .  S
C1042      C1043   1.417       .  A
C1042      C1054   1.446       .  S
C1043      C1044   1.402       .  A
C1044      H1059   1.084       .  S
C1045      C1046   1.400       .  A
C1045      C1050   1.417       .  A
C1046      C1047   1.401       .  A
C1046      H1061   1.085       .  S
C1047      C1048   1.423       .  A
C1047      C1051   1.444       .  S
C1048      C1049   1.407       .  A
C1049      C1050   1.414       .  A
C1049      H1062   1.084       .  S
C1050      C1052   1.442       .  S
C1051      N1055   1.157       .  T
C1052      N1056   1.157       .  T
C1053      N1058   1.157       .  T
C1054      N1057   1.157       .  T
C1063      C1064   1.415       .  A
C1063      C1068   1.409       .  A
C1063      C1077   1.441       .  S
C1064      C1069   1.499       .  S
C1064      C1065   1.402       .  A
C1065      C1066   1.401       .  A
C1065      H1084   1.085       .  S
C1066      C1067   1.414       .  A
C1066      C1078   1.445       .  S
C1067      C1068   1.403       .  A
C1068      H1083   1.084       .  S
C1069      C1070   1.409       .  A
C1069      C1074   1.412       .  A
C1070      C1071   1.412       .  A
C1070      H1085   1.084       .  S
C1071      C1072   1.415       .  A
C1071      C1075   1.442       .  S
C1072      C1073   1.408       .  A
C1073      C1074   1.398       .  A
C1073      H1086   1.085       .  S
C1074      C1076   1.445       .  S
C1075      N1079   1.157       .  T
C1076      N1080   1.157       .  T
C1077      N1082   1.156       .  T
C1078      N1081   1.157       .  T
C1087      C1088   1.422       .  A
C1087      C1092   1.402       .  A
C1087      C1101   1.445       .  S
C1088      C1093   1.517       .  S
C1088      C1089   1.410       .  A
C1089      C1090   1.409       .  A
C1089      H1108   1.082       .  S
C1090      C1091   1.416       .  A
C1090      C1102   1.441       .  S
C1091      C1092   1.403       .  A
C1092      H1107   1.083       .  S
C1093      C1094   1.405       .  A
C1093      C1098   1.421       .  A
C1094      C1095   1.400       .  A
C1094      H1109   1.084       .  S
C1095      C1096   1.420       .  A
C1095      C1099   1.441       .  S
C1096      C1097   1.409       .  A
C1097      C1098   1.412       .  A
C1097      H1110   1.082       .  S
C1098      C1100   1.443       .  S
C1099      N1103   1.157       .  T
C1100      N1104   1.157       .  T
C1101      N1106   1.157       .  T
C1102      N1105   1.157   1_556  T
C1111      C1112   1.410       .  A
C1111      C1116   1.405       .  A
C1111      C1125   1.443       .  S
C1112      C1117   1.494       .  S
C1112      C1113   1.402   1_556  A
C1113      C1114   1.406       .  A
C1113      H1132   1.084       .  S
C1114      C1115   1.418   1_554  A
C1114      C1126   1.443       .  S
C1115      C1116   1.408       .  A
C1116      H1131   1.084       .  S
C1117      C1118   1.401   1_556  A
C1117      C1122   1.413       .  A
C1118      C1119   1.402       .  A
C1118      H1133   1.084       .  S
C1119      C1120   1.415   1_554  A
C1119      C1123   1.443       .  S
C1120      C1121   1.403       .  A
C1121      C1122   1.411       .  A
C1121      H1134   1.083       .  S
C1122      C1124   1.442       .  S
C1123      N1127   1.157       .  T
C1124      N1128   1.157       .  T
C1125      N1130   1.157       .  T
C1126      N1129   1.157       .  T
C1135      C1136   1.416       .  A
C1135      C1140   1.394       .  A
C1135      C1149   1.446       .  S
C1136      C1141   1.503       .  S
C1136      C1137   1.408       .  A
C1137      C1138   1.409       .  A
C1137      H1156   1.083       .  S
C1138      C1139   1.417       .  A
C1138      C1150   1.442       .  S
C1139      C1140   1.403       .  A
C1140      H1155   1.083       .  S
C1141      C1142   1.401   1_655  A
C1141      C1146   1.415       .  A
C1142      C1143   1.394       .  A
C1142      H1157   1.085       .  S
C1143      C1144   1.417       .  A
C1143      C1147   1.441       .  S
C1144      C1145   1.411   1_455  A
C1145      C1146   1.410       .  A
C1145      H1158   1.082       .  S
C1146      C1148   1.443       .  S
C1147      N1151   1.156       .  T
C1148      N1152   1.157       .  T
C1149      N1154   1.157       .  T
C1150      N1153   1.157   1_554  T
C1159      C1160   1.411       .  A
C1159      C1164   1.401       .  A
C1159      C1173   1.443       .  S
C1160      C1165   1.496       .  S
C1160      C1161   1.406       .  A
C1161      C1162   1.407       .  A
C1161      H1180   1.084       .  S
C1162      C1163   1.416       .  A
C1162      C1174   1.442       .  S
C1163      C1164   1.406       .  A
C1164      H1179   1.084       .  S
C1165      C1166   1.404       .  A
C1165      C1170   1.415       .  A
C1166      C1167   1.401       .  A
C1166      H1181   1.085       .  S
C1167      C1168   1.409       .  A
C1167      C1171   1.442       .  S
C1168      C1169   1.403       .  A
C1169      C1170   1.408       .  A
C1169      H1182   1.084       .  S
C1170      C1172   1.443       .  S
C1171      N1175   1.157       .  T
C1172      N1176   1.157       .  T
C1173      N1178   1.157       .  T
C1174      N1177   1.157       .  T
C1183      C1184   1.423   1_554  A
C1183      C1188   1.404       .  A
C1183      C1197   1.443       .  S
C1184      C1189   1.515   1_556  S
C1184      C1185   1.412       .  A
C1185      C1186   1.401       .  A
C1185      H1204   1.083       .  S
C1186      C1187   1.407       .  A
C1186      C1198   1.443       .  S
C1187      C1188   1.402   1_556  A
C1188      H1203   1.084       .  S
C1189      C1190   1.411       .  A
C1189      C1194   1.419   1_554  A
C1190      C1191   1.407       .  A
C1190      H1205   1.081       .  S
C1191      C1192   1.417       .  A
C1191      C1195   1.441       .  S
C1192      C1193   1.407   1_554  A
C1193      C1194   1.400       .  A
C1193      H1206   1.080       .  S
C1194      C1196   1.445       .  S
C1195      N1199   1.157       .  T
C1196      N1200   1.157       .  T
C1197      N1202   1.157       .  T
C1198      N1201   1.157       .  T
C1207      C1208   1.412       .  A
C1207      C1212   1.403       .  A
C1207      C1221   1.443       .  S
C1208      C1213   1.493       .  S
C1208      C1209   1.405   1_655  A
C1209      C1210   1.407       .  A
C1209      H1228   1.084       .  S
C1210      C1211   1.412   1_455  A
C1210      C1222   1.442       .  S
C1211      C1212   1.405       .  A
C1212      H1227   1.084       .  S
C1213      C1214   1.400   1_655  A
C1213      C1218   1.414       .  A
C1214      C1215   1.400       .  A
C1214      H1229   1.084       .  S
C1215      C1216   1.415   1_455  A
C1215      C1219   1.443       .  S
C1216      C1217   1.404       .  A
C1217      C1218   1.411       .  A
C1217      H1230   1.083       .  S
C1218      C1220   1.442       .  S
C1219      N1223   1.157       .  T
C1220      N1224   1.157       .  T
C1221      N1226   1.157       .  T
C1222      N1225   1.157       .  T
C1231      C1232   1.417       .  A
C1231      C1236   1.414       .  A
C1231      C1245   1.443       .  S
C1232      C1237   1.502       .  S
C1232      C1233   1.401       .  A
C1233      C1234   1.391       .  A
C1233      H1252   1.085       .  S
C1234      C1235   1.420       .  A
C1234      C1246   1.446       .  S
C1235      C1236   1.408       .  A
C1236      H1251   1.084       .  S
C1237      C1238   1.412       .  A
C1237      C1242   1.416       .  A
C1238      C1239   1.405       .  A
C1238      H1253   1.085       .  S
C1239      C1240   1.410       .  A
C1239      C1243   1.443       .  S
C1240      C1241   1.404       .  A
C1241      C1242   1.400       .  A
C1241      H1254   1.085       .  S
C1242      C1244   1.444       .  S
C1243      N1247   1.157       .  T
C1244      N1248   1.157       .  T
C1245      N1250   1.157       .  T
C1246      N1249   1.157       .  T
C1255      C1256   1.415       .  A
C1255      C1260   1.407       .  A
C1255      C1269   1.443       .  S
C1256      C1261   1.495       .  S
C1256      C1257   1.402       .  A
C1257      C1258   1.401       .  A
C1257      H1276   1.085       .  S
C1258      C1259   1.415       .  A
C1258      C1270   1.444       .  S
C1259      C1260   1.405       .  A
C1260      H1275   1.085       .  S
C1261      C1262   1.404       .  A
C1261      C1266   1.412       .  A
C1262      C1263   1.405       .  A
C1262      H1277   1.085       .  S
C1263      C1264   1.417       .  A
C1263      C1267   1.444       .  S
C1264      C1265   1.407       .  A
C1265      C1266   1.404       .  A
C1265      H1278   1.085       .  S
C1266      C1268   1.443       .  S
C1267      N1271   1.157       .  T
C1268      N1272   1.157       .  T
C1269      N1274   1.157       .  T
C1270      N1273   1.157       .  T
C1279      C1280   1.414       .  A
C1279      C1284   1.406       .  A
C1279      C1293   1.444       .  S
C1280      C1285   1.495       .  S
C1280      C1281   1.403       .  A
C1281      C1282   1.404       .  A
C1281      H1300   1.085       .  S
C1282      C1283   1.414       .  A
C1282      C1294   1.444       .  S
C1283      C1284   1.404       .  A
C1284      H1299   1.085       .  S
C1285      C1286   1.404       .  A
C1285      C1290   1.412       .  A
C1286      C1287   1.408       .  A
C1286      H1301   1.085       .  S
C1287      C1288   1.416       .  A
C1287      C1291   1.442       .  S
C1288      C1289   1.405       .  A
C1289      C1290   1.402       .  A
C1289      H1302   1.085       .  S
C1290      C1292   1.445       .  S
C1291      N1295   1.157       .  T
C1292      N1296   1.157       .  T
C1293      N1298   1.157       .  T
C1294      N1297   1.157       .  T
C1303      C1304   1.409       .  A
C1303      C1308   1.397       .  A
C1303      C1317   1.445       .  S
C1304      C1309   1.487       .  S
C1304      C1305   1.405       .  A
C1305      C1306   1.408       .  A
C1305      H1324   1.084       .  S
C1306      C1307   1.410       .  A
C1306      C1318   1.443       .  S
C1307      C1308   1.402       .  A
C1308      H1323   1.085       .  S
C1309      C1310   1.405       .  A
C1309      C1314   1.404       .  A
C1310      C1311   1.405       .  A
C1310      H1325   1.085       .  S
C1311      C1312   1.416       .  A
C1311      C1315   1.443       .  S
C1312      C1313   1.415       .  A
C1313      C1314   1.402       .  A
C1313      H1326   1.083       .  S
C1314      C1316   1.444       .  S
C1315      N1319   1.157       .  T
C1316      N1320   1.157       .  T
C1317      N1322   1.157       .  T
C1318      N1321   1.157       .  T
C1327      C1328   1.407       .  A
C1327      C1332   1.394       .  A
C1327      C1341   1.445       .  S
C1328      C1333   1.479       .  S
C1328      C1329   1.407       .  A
C1329      C1330   1.403       .  A
C1329      H1348   1.084       .  S
C1330      C1331   1.408       .  A
C1330      C1342   1.443       .  S
C1331      C1332   1.405       .  A
C1332      H1347   1.085       .  S
C1333      C1334   1.403       .  A
C1333      C1338   1.408       .  A
C1334      C1335   1.405       .  A
C1334      H1349   1.084       .  S
C1335      C1336   1.417       .  A
C1335      C1339   1.443       .  S
C1336      C1337   1.405       .  A
C1337      C1338   1.389       .  A
C1337      H1350   1.085       .  S
C1338      C1340   1.446       .  S
C1339      N1343   1.157       .  T
C1340      N1344   1.157       .  T
C1341      N1346   1.157       .  T
C1342      N1345   1.157       .  T
C1351      C1352   1.415       .  A
C1351      C1356   1.397       .  A
C1351      C1365   1.444       .  S
C1352      C1357   1.494       .  S
C1352      C1353   1.410       .  A
C1353      C1354   1.404       .  A
C1353      H1372   1.085       .  S
C1354      C1355   1.408       .  A
C1354      C1366   1.443       .  S
C1355      C1356   1.402       .  A
C1356      H1371   1.086       .  S
C1357      C1358   1.402       .  A
C1357      C1362   1.412       .  A
C1358      C1359   1.394       .  A
C1358      H1373   1.085       .  S
C1359      C1360   1.419       .  A
C1359      C1363   1.446       .  S
C1360      C1361   1.408       .  A
C1361      C1362   1.406       .  A
C1361      H1374   1.084       .  S
C1362      C1364   1.443       .  S
C1363      N1367   1.157       .  T
C1364      N1368   1.157       .  T
C1365      N1370   1.157       .  T
C1366      N1369   1.157       .  T
C1375      C1376   1.412       .  A
C1375      C1380   1.406       .  A
C1375      C1389   1.443       .  S
C1376      C1381   1.493       .  S
C1376      C1377   1.402   1_545  A
C1377      C1378   1.403       .  A
C1377      H1396   1.084       .  S
C1378      C1379   1.413   1_565  A
C1378      C1390   1.441       .  S
C1379      C1380   1.406       .  A
C1380      H1395   1.084       .  S
C1381      C1382   1.404       .  A
C1381      C1386   1.410   1_545  A
C1382      C1383   1.407       .  A
C1382      H1397   1.084       .  S
C1383      C1384   1.413   1_545  A
C1383      C1387   1.440       .  S
C1384      C1385   1.407       .  A
C1385      C1386   1.402       .  A
C1385      H1398   1.085       .  S
C1386      C1388   1.443       .  S
C1387      N1391   1.157       .  T
C1388      N1392   1.157       .  T
C1389      N1394   1.157       .  T
C1390      N1393   1.157       .  T
C1399      C1400   1.415   1_556  A
C1399      C1404   1.396       .  A
C1399      C1413   1.445       .  S
C1400      C1405   1.491       .  S
C1400      C1401   1.406       .  A
C1401      C1402   1.399       .  A
C1401      H1420   1.083       .  S
C1402      C1403   1.409       .  A
C1402      C1414   1.442       .  S
C1403      C1404   1.401   1_554  A
C1404      H1419   1.083       .  S
C1405      C1406   1.405   1_554  A
C1405      C1410   1.415       .  A
C1406      C1407   1.397       .  A
C1406      H1421   1.084       .  S
C1407      C1408   1.409   1_556  A
C1407      C1411   1.443       .  S
C1408      C1409   1.401       .  A
C1409      C1410   1.400       .  A
C1409      H1422   1.083       .  S
C1410      C1412   1.444       .  S
C1411      N1415   1.157       .  T
C1412      N1416   1.157       .  T
C1413      N1418   1.157       .  T
C1414      N1417   1.157       .  T
C1423      C1424   1.421       .  A
C1423      C1428   1.401       .  A
C1423      C1437   1.444       .  S
C1424      C1429   1.510       .  S
C1424      C1425   1.408       .  A
C1425      C1426   1.404       .  A
C1425      H1444   1.083       .  S
C1426      C1427   1.415       .  A
C1426      C1438   1.442   1_554  S
C1427      C1428   1.403       .  A
C1428      H1443   1.084       .  S
C1429      C1430   1.404       .  A
C1429      C1434   1.417   1_554  A
C1430      C1431   1.401       .  A
C1430      H1445   1.084       .  S
C1431      C1432   1.419       .  A
C1431      C1435   1.440       .  S
C1432      C1433   1.409   1_554  A
C1433      C1434   1.406       .  A
C1433      H1446   1.078       .  S
C1434      C1436   1.444       .  S
C1435      N1439   1.157       .  T
C1436      N1440   1.157       .  T
C1437      N1442   1.157       .  T
C1438      N1441   1.157   1_545  T
C1447      C1448   1.409       .  A
C1447      C1452   1.404       .  A
C1447      C1461   1.443       .  S
C1448      C1453   1.495       .  S
C1448      C1449   1.404       .  A
C1449      C1450   1.409       .  A
C1449      H1468   1.084       .  S
C1450      C1451   1.416       .  A
C1450      C1462   1.442       .  S
C1451      C1452   1.407       .  A
C1452      H1467   1.084       .  S
C1453      C1454   1.406       .  A
C1453      C1458   1.409       .  A
C1454      C1455   1.411       .  A
C1454      H1469   1.085       .  S
C1455      C1456   1.413       .  A
C1455      C1459   1.441       .  S
C1456      C1457   1.408       .  A
C1457      C1458   1.402       .  A
C1457      H1470   1.085       .  S
C1458      C1460   1.443       .  S
C1459      N1463   1.157       .  T
C1460      N1464   1.157       .  T
C1461      N1466   1.157       .  T
C1462      N1465   1.157       .  T
C1471      C1472   1.416       .  A
C1471      C1476   1.409       .  A
C1471      C1485   1.443       .  S
C1472      C1477   1.508       .  S
C1472      C1473   1.407       .  A
C1473      C1474   1.407       .  A
C1473      H1492   1.084       .  S
C1474      C1475   1.415       .  A
C1474      C1486   1.443       .  S
C1475      C1476   1.409       .  A
C1476      H1491   1.084       .  S
C1477      C1478   1.404       .  A
C1477      C1482   1.418       .  A
C1478      C1479   1.403       .  A
C1478      H1493   1.085       .  S
C1479      C1480   1.420       .  A
C1479      C1483   1.445       .  S
C1480      C1481   1.405       .  A
C1481      C1482   1.413       .  A
C1481      H1494   1.082       .  S
C1482      C1484   1.443       .  S
C1483      N1487   1.158       .  T
C1484      N1488   1.157       .  T
C1485      N1490   1.157       .  T
C1486      N1489   1.157   1_565  T
C1495      C1496   1.415       .  A
C1495      C1500   1.400       .  A
C1495      C1509   1.445       .  S
C1496      C1501   1.497       .  S
C1496      C1497   1.406   1_565  A
C1497      C1498   1.406       .  A
C1497      H1516   1.084       .  S
C1498      C1499   1.414   1_545  A
C1498      C1510   1.441       .  S
C1499      C1500   1.402       .  A
C1500      H1515   1.084       .  S
C1501      C1502   1.404       .  A
C1501      C1506   1.414   1_565  A
C1502      C1503   1.399       .  A
C1502      H1517   1.085       .  S
C1503      C1504   1.415       .  A
C1503      C1507   1.443       .  S
C1504      C1505   1.406   1_565  A
C1505      C1506   1.403       .  A
C1505      H1518   1.084       .  S
C1506      C1508   1.443       .  S
C1507      N1511   1.157       .  T
C1508      N1512   1.157       .  T
C1509      N1514   1.157       .  T
C1510      N1513   1.157       .  T
C1519      C1520   1.416       .  A
C1519      C1524   1.408       .  A
C1519      C1533   1.443       .  S
C1520      C1525   1.499       .  S
C1520      C1521   1.405       .  A
C1521      C1522   1.400       .  A
C1521      H1540   1.085       .  S
C1522      C1523   1.412       .  A
C1522      C1534   1.445       .  S
C1523      C1524   1.402       .  A
C1524      H1539   1.084       .  S
C1525      C1526   1.406       .  A
C1525      C1530   1.411       .  A
C1526      C1527   1.406       .  A
C1526      H1541   1.084       .  S
C1527      C1528   1.416       .  A
C1527      C1531   1.443       .  S
C1528      C1529   1.411       .  A
C1529      C1530   1.403       .  A
C1529      H1542   1.084       .  S
C1530      C1532   1.444       .  S
C1531      N1535   1.157       .  T
C1532      N1536   1.157       .  T
C1533      N1538   1.157       .  T
C1534      N1537   1.157       .  T
C1543      C1544   1.408       .  A
C1543      C1548   1.401       .  A
C1543      C1557   1.444       .  S
C1544      C1549   1.492       .  S
C1544      C1545   1.408       .  A
C1545      C1546   1.408       .  A
C1545      H1564   1.085       .  S
C1546      C1547   1.410       .  A
C1546      C1558   1.442       .  S
C1547      C1548   1.407       .  A
C1548      H1563   1.086       .  S
C1549      C1550   1.405       .  A
C1549      C1554   1.410       .  A
C1550      C1551   1.404       .  A
C1550      H1565   1.085       .  S
C1551      C1552   1.411       .  A
C1551      C1555   1.443       .  S
C1552      C1553   1.406       .  A
C1553      C1554   1.404       .  A
C1553      H1566   1.085       .  S
C1554      C1556   1.443       .  S
C1555      N1559   1.157       .  T
C1556      N1560   1.157       .  T
C1557      N1562   1.157       .  T
C1558      N1561   1.157       .  T
C1567      C1568   1.407       .  A
C1567      C1572   1.391       .  A
C1567      C1581   1.446       .  S
C1568      C1573   1.490       .  S
C1568      C1569   1.409       .  A
C1569      C1570   1.412       .  A
C1569      H1588   1.084       .  S
C1570      C1571   1.414       .  A
C1570      C1582   1.442       .  S
C1571      C1572   1.410       .  A
C1572      H1587   1.084       .  S
C1573      C1574   1.409       .  A
C1573      C1578   1.410       .  A
C1574      C1575   1.407       .  A
C1574      H1589   1.085       .  S
C1575      C1576   1.410       .  A
C1575      C1579   1.443       .  S
C1576      C1577   1.405       .  A
C1577      C1578   1.398       .  A
C1577      H1590   1.085       .  S
C1578      C1580   1.445       .  S
C1579      N1583   1.157       .  T
C1580      N1584   1.157       .  T
C1581      N1586   1.157       .  T
C1582      N1585   1.157       .  T
C1591      C1592   1.409       .  A
C1591      C1596   1.406       .  A
C1591      C1605   1.442       .  S
C1592      C1597   1.487       .  S
C1592      C1593   1.401       .  A
C1593      C1594   1.402       .  A
C1593      H1612   1.085       .  S
C1594      C1595   1.412       .  A
C1594      C1606   1.442       .  S
C1595      C1596   1.403       .  A
C1596      H1611   1.082       .  S
C1597      C1598   1.405       .  A
C1597      C1602   1.407       .  A
C1598      C1599   1.411       .  A
C1598      H1613   1.084       .  S
C1599      C1600   1.414       .  A
C1599      C1603   1.442       .  S
C1600      C1601   1.406       .  A
C1601      C1602   1.395       .  A
C1601      H1614   1.085       .  S
C1602      C1604   1.445       .  S
C1603      N1607   1.157       .  T
C1604      N1608   1.157       .  T
C1605      N1610   1.157       .  T
C1606      N1609   1.157       .  T
C1615      C1616   1.414       .  A
C1615      C1620   1.405       .  A
C1615      C1629   1.444       .  S
C1616      C1621   1.494       .  S
C1616      C1617   1.407       .  A
C1617      C1618   1.393       .  A
C1617      H1636   1.083       .  S
C1618      C1619   1.407       .  A
C1618      C1630   1.444       .  S
C1619      C1620   1.405       .  A
C1620      H1635   1.083       .  S
C1621      C1622   1.411       .  A
C1621      C1626   1.413       .  A
C1622      C1623   1.403       .  A
C1622      H1637   1.083       .  S
C1623      C1624   1.406       .  A
C1623      C1627   1.444       .  S
C1624      C1625   1.402       .  A
C1625      C1626   1.396       .  A
C1625      H1638   1.081       .  S
C1626      C1628   1.445       .  S
C1627      N1631   1.157       .  T
C1628      N1632   1.157       .  T
C1629      N1634   1.157       .  T
C1630      N1633   1.157       .  T
C1639      C1640   1.412       .  A
C1639      C1644   1.411       .  A
C1639      C1653   1.442       .  S
C1640      C1645   1.493       .  S
C1640      C1641   1.403       .  A
C1641      C1642   1.398       .  A
C1641      H1660   1.083       .  S
C1642      C1643   1.413       .  A
C1642      C1654   1.445       .  S
C1643      C1644   1.406       .  A
C1644      H1659   1.081       .  S
C1645      C1646   1.404       .  A
C1645      C1650   1.413       .  A
C1646      C1647   1.403       .  A
C1646      H1661   1.083       .  S
C1647      C1648   1.411       .  A
C1647      C1651   1.444       .  S
C1648      C1649   1.403       .  A
C1649      C1650   1.404       .  A
C1649      H1662   1.084       .  S
C1650      C1652   1.443       .  S
C1651      N1655   1.157       .  T
C1652      N1656   1.157       .  T
C1653      N1658   1.157       .  T
C1654      N1657   1.157       .  T
C1663      C1664   1.412       .  A
C1663      C1668   1.396       .  A
C1663      C1677   1.446       .  S
C1664      C1669   1.492       .  S
C1664      C1665   1.407       .  A
C1665      C1666   1.409       .  A
C1665      H1684   1.084       .  S
C1666      C1667   1.414       .  A
C1666      C1678   1.443       .  S
C1667      C1668   1.404       .  A
C1668      H1683   1.081       .  S
C1669      C1670   1.407       .  A
C1669      C1674   1.410       .  A
C1670      C1671   1.406       .  A
C1670      H1685   1.084       .  S
C1671      C1672   1.410       .  A
C1671      C1675   1.441       .  S
C1672      C1673   1.408       .  A
C1673      C1674   1.399       .  A
C1673      H1686   1.085       .  S
C1674      C1676   1.445       .  S
C1675      N1679   1.157       .  T
C1676      N1680   1.157       .  T
C1677      N1682   1.157       .  T
C1678      N1681   1.157       .  T
C1687      C1688   1.419       .  A
C1687      C1692   1.405       .  A
C1687      C1701   1.444       .  S
C1688      C1693   1.499       .  S
C1688      C1689   1.404       .  A
C1689      C1690   1.402       .  A
C1689      H1708   1.083       .  S
C1690      C1691   1.412       .  A
C1690      C1702   1.445       .  S
C1691      C1692   1.401       .  A
C1692      H1707   1.085       .  S
C1693      C1694   1.405       .  A
C1693      C1698   1.415       .  A
C1694      C1695   1.400       .  A
C1694      H1709   1.085       .  S
C1695      C1696   1.413       .  A
C1695      C1699   1.444       .  S
C1696      C1697   1.405       .  A
C1697      C1698   1.407       .  A
C1697      H1710   1.085       .  S
C1698      C1700   1.443       .  S
C1699      N1703   1.157       .  T
C1700      N1704   1.157       .  T
C1701      N1706   1.157       .  T
C1702      N1705   1.157       .  T
C1711      C1712   1.412       .  A
C1711      C1716   1.402       .  A
C1711      C1725   1.444       .  S
C1712      C1717   1.505       .  S
C1712      C1713   1.411       .  A
C1713      C1714   1.409       .  A
C1713      H1732   1.084       .  S
C1714      C1715   1.411       .  A
C1714      C1726   1.442       .  S
C1715      C1716   1.409       .  A
C1716      H1731   1.084       .  S
C1717      C1718   1.407       .  A
C1717      C1722   1.415       .  A
C1718      C1719   1.402       .  A
C1718      H1733   1.084       .  S
C1719      C1720   1.412       .  A
C1719      C1723   1.444       .  S
C1720      C1721   1.404       .  A
C1721      C1722   1.409       .  A
C1721      H1734   1.085       .  S
C1722      C1724   1.443       .  S
C1723      N1727   1.157       .  T
C1724      N1728   1.157       .  T
C1725      N1730   1.157       .  T
C1726      N1729   1.157       .  T
C1735      C1736   1.412       .  A
C1735      C1740   1.408       .  A
C1735      C1749   1.443       .  S
C1736      C1741   1.490       .  S
C1736      C1737   1.398       .  A
C1737      C1738   1.397       .  A
C1737      H1756   1.085       .  S
C1738      C1739   1.420       .  A
C1738      C1750   1.445       .  S
C1739      C1740   1.406       .  A
C1740      H1755   1.084       .  S
C1741      C1742   1.406       .  A
C1741      C1746   1.411       .  A
C1742      C1743   1.408       .  A
C1742      H1757   1.084       .  S
C1743      C1744   1.410       .  A
C1743      C1747   1.442       .  S
C1744      C1745   1.404       .  A
C1745      C1746   1.397       .  A
C1745      H1758   1.085       .  S
C1746      C1748   1.445       .  S
C1747      N1751   1.157       .  T
C1748      N1752   1.157       .  T
C1749      N1754   1.157       .  T
C1750      N1753   1.157       .  T
C1759      C1760   1.410       .  A
C1759      C1764   1.405       .  A
C1759      C1773   1.443       .  S
C1760      C1765   1.488       .  S
C1760      C1761   1.404       .  A
C1761      C1762   1.399       .  A
C1761      H1780   1.086       .  S
C1762      C1763   1.408       .  A
C1762      C1774   1.442       .  S
C1763      C1764   1.402       .  A
C1764      H1779   1.081       .  S
C1765      C1766   1.402       .  A
C1765      C1770   1.414       .  A
C1766      C1767   1.400       .  A
C1766      H1781   1.084       .  S
C1767      C1768   1.413       .  A
C1767      C1771   1.445       .  S
C1768      C1769   1.401       .  A
C1769      C1770   1.403       .  A
C1769      H1782   1.085       .  S
C1770      C1772   1.443       .  S
C1771      N1775   1.157       .  T
C1772      N1776   1.157       .  T
C1773      N1778   1.157       .  T
C1774      N1777   1.157       .  T
C1783      C1784   1.409       .  A
C1783      C1788   1.394       .  A
C1783      C1797   1.446       .  S
C1784      C1789   1.487       .  S
C1784      C1785   1.407       .  A
C1785      C1786   1.410       .  A
C1785      H1804   1.083       .  S
C1786      C1787   1.412       .  A
C1786      C1798   1.442       .  S
C1787      C1788   1.401       .  A
C1788      H1803   1.079       .  S
C1789      C1790   1.406       .  A
C1789      C1794   1.407       .  A
C1790      C1791   1.404       .  A
C1790      H1805   1.083       .  S
C1791      C1792   1.407       .  A
C1791      C1795   1.444       .  S
C1792      C1793   1.405       .  A
C1793      C1794   1.401       .  A
C1793      H1806   1.085       .  S
C1794      C1796   1.443       .  S
C1795      N1799   1.157       .  T
C1796      N1800   1.157       .  T
C1797      N1802   1.157       .  T
C1798      N1801   1.157       .  T
C1807      C1808   1.415       .  A
C1807      C1812   1.409       .  A
C1807      C1821   1.443       .  S
C1808      C1813   1.491       .  S
C1808      C1809   1.398       .  A
C1809      C1810   1.394       .  A
C1809      H1828   1.085       .  S
C1810      C1811   1.420       .  A
C1810      C1822   1.445       .  S
C1811      C1812   1.406       .  A
C1812      H1827   1.084       .  S
C1813      C1814   1.407       .  A
C1813      C1818   1.414       .  A
C1814      C1815   1.407       .  A
C1814      H1829   1.084       .  S
C1815      C1816   1.407       .  A
C1815      C1819   1.442       .  S
C1816      C1817   1.401       .  A
C1817      C1818   1.396       .  A
C1817      H1830   1.085       .  S
C1818      C1820   1.446       .  S
C1819      N1823   1.157       .  T
C1820      N1824   1.157       .  T
C1821      N1826   1.157       .  T
C1822      N1825   1.157       .  T
C1831      C1832   1.411       .  A
C1831      C1836   1.414       .  A
C1831      C1845   1.441       .  S
C1832      C1837   1.488       .  S
C1832      C1833   1.397       .  A
C1833      C1834   1.393       .  A
C1833      H1852   1.086       .  S
C1834      C1835   1.417       .  A
C1834      C1846   1.443       .  S
C1835      C1836   1.410       .  A
C1836      H1851   1.084       .  S
C1837      C1838   1.406       .  A
C1837      C1842   1.409       .  A
C1838      C1839   1.403       .  A
C1838      H1853   1.085       .  S
C1839      C1840   1.410       .  A
C1839      C1843   1.444       .  S
C1840      C1841   1.405       .  A
C1841      C1842   1.403       .  A
C1841      H1854   1.084       .  S
C1842      C1844   1.443       .  S
C1843      N1847   1.157       .  T
C1844      N1848   1.157       .  T
C1845      N1850   1.157       .  T
C1846      N1849   1.156       .  T
C1855      C1856   1.411       .  A
C1855      C1860   1.392       .  A
C1855      C1869   1.446       .  S
C1856      C1861   1.494       .  S
C1856      C1857   1.409       .  A
C1857      C1858   1.411       .  A
C1857      H1876   1.084       .  S
C1858      C1859   1.414       .  A
C1858      C1870   1.442       .  S
C1859      C1860   1.407       .  A
C1860      H1875   1.085       .  S
C1861      C1862   1.409       .  A
C1861      C1866   1.413       .  A
C1862      C1863   1.405       .  A
C1862      H1877   1.085       .  S
C1863      C1864   1.407       .  A
C1863      C1867   1.443       .  S
C1864      C1865   1.403       .  A
C1865      C1866   1.399       .  A
C1865      H1878   1.086       .  S
C1866      C1868   1.444       .  S
C1867      N1871   1.157       .  T
C1868      N1872   1.157       .  T
C1869      N1874   1.157       .  T
C1870      N1873   1.157       .  T
C1879      C1880   1.412       .  A
C1879      C1884   1.395       .  A
C1879      C1893   1.446       .  S
C1880      C1885   1.483       .  S
C1880      C1881   1.404       .  A
C1881      C1882   1.407       .  A
C1881      H1900   1.084       .  S
C1882      C1883   1.414       .  A
C1882      C1894   1.442       .  S
C1883      C1884   1.403       .  A
C1884      H1899   1.085       .  S
C1885      C1886   1.399       .  A
C1885      C1890   1.409       .  A
C1886      C1887   1.396       .  A
C1886      H1901   1.081       .  S
C1887      C1888   1.412       .  A
C1887      C1891   1.443       .  S
C1888      C1889   1.406       .  A
C1889      C1890   1.404       .  A
C1889      H1902   1.085       .  S
C1890      C1892   1.442       .  S
C1891      N1895   1.157       .  T
C1892      N1896   1.157       .  T
C1893      N1898   1.157       .  T
C1894      N1897   1.157       .  T
C1903      C1904   1.406       .  A
C1903      C1908   1.400       .  A
C1903      C1917   1.443       .  S
C1904      C1909   1.484       .  S
C1904      C1905   1.405       .  A
C1905      C1906   1.403       .  A
C1905      H1924   1.085       .  S
C1906      C1907   1.412       .  A
C1906      C1918   1.443       .  S
C1907      C1908   1.406       .  A
C1908      H1923   1.085       .  S
C1909      C1910   1.398       .  A
C1909      C1914   1.411       .  A
C1910      C1911   1.391       .  A
C1910      H1925   1.087       .  S
C1911      C1912   1.417       .  A
C1911      C1915   1.447       .  S
C1912      C1913   1.407       .  A
C1913      C1914   1.410       .  A
C1913      H1926   1.085       .  S
C1914      C1916   1.441       .  S
C1915      N1919   1.157       .  T
C1916      N1920   1.157       .  T
C1917      N1922   1.157       .  T
C1918      N1921   1.157       .  T
C1927      C1928   1.416       .  A
C1927      C1932   1.413       .  A
C1927      C1941   1.443       .  S
C1928      C1933   1.499       .  S
C1928      C1929   1.398       .  A
C1929      C1930   1.399       .  A
C1929      H1948   1.085       .  S
C1930      C1931   1.423       .  A
C1930      C1942   1.443       .  S
C1931      C1932   1.408       .  A
C1932      H1947   1.084       .  S
C1933      C1934   1.407       .  A
C1933      C1938   1.416       .  A
C1934      C1935   1.409       .  A
C1934      H1949   1.084       .  S
C1935      C1936   1.410       .  A
C1935      C1939   1.442       .  S
C1936      C1937   1.403       .  A
C1937      C1938   1.402       .  A
C1937      H1950   1.085       .  S
C1938      C1940   1.445       .  S
C1939      N1943   1.157       .  T
C1940      N1944   1.157       .  T
C1941      N1946   1.157       .  T
C1942      N1945   1.157       .  T
C1951      C1952   1.418       .  A
C1951      C1956   1.403       .  A
C1951      C1965   1.445       .  S
C1952      C1957   1.494       .  S
C1952      C1953   1.405       .  A
C1953      C1954   1.402       .  A
C1953      H1972   1.084       .  S
C1954      C1955   1.409       .  A
C1954      C1966   1.443       .  S
C1955      C1956   1.402       .  A
C1956      H1971   1.085       .  S
C1957      C1958   1.406       .  A
C1957      C1962   1.411       .  A
C1958      C1959   1.402       .  A
C1958      H1973   1.084       .  S
C1959      C1960   1.408       .  A
C1959      C1963   1.444       .  S
C1960      C1961   1.407       .  A
C1961      C1962   1.403       .  A
C1961      H1974   1.084       .  S
C1962      C1964   1.444       .  S
C1963      N1967   1.157       .  T
C1964      N1968   1.157       .  T
C1965      N1970   1.158       .  T
C1966      N1969   1.157       .  T
C1975      C1976   1.410       .  A
C1975      C1980   1.403       .  A
C1975      C1989   1.443       .  S
C1976      C1981   1.492       .  S
C1976      C1977   1.404       .  A
C1977      C1978   1.403       .  A
C1977      H1996   1.084       .  S
C1978      C1979   1.415       .  A
C1978      C1990   1.445       .  S
C1979      C1980   1.405       .  A
C1980      H1995   1.083       .  S
C1981      C1982   1.406       .  A
C1981      C1986   1.414       .  A
C1982      C1983   1.409       .  A
C1982      H1997   1.085       .  S
C1983      C1984   1.413       .  A
C1983      C1987   1.443       .  S
C1984      C1985   1.402       .  A
C1985      C1986   1.397       .  A
C1985      H1998   1.085       .  S
C1986      C1988   1.446       .  S
C1987      N1991   1.157       .  T
C1988      N1992   1.157       .  T
C1989      N1994   1.157       .  T
C1990      N1993   1.158       .  T
C1999      C2000   1.411       .  A
C1999      C2004   1.407       .  A
C1999      C2013   1.442       .  S
C2000      C2005   1.492       .  S
C2000      C2001   1.406       .  A
C2001      C2002   1.401       .  A
C2001      H2020   1.085       .  S
C2002      C2003   1.409       .  A
C2002      C2014   1.445       .  S
C2003      C2004   1.403       .  A
C2004      H2019   1.083       .  S
C2005      C2006   1.405       .  A
C2005      C2010   1.411       .  A
C2006      C2007   1.402       .  A
C2006      H2021   1.085       .  S
C2007      C2008   1.410       .  A
C2007      C2011   1.443       .  S
C2008      C2009   1.405       .  A
C2009      C2010   1.406       .  A
C2009      H2022   1.085       .  S
C2010      C2012   1.443       .  S
C2011      N2015   1.157       .  T
C2012      N2016   1.157       .  T
C2013      N2018   1.157       .  T
C2014      N2017   1.158       .  T
C2023      C2024   1.418       .  A
C2023      C2028   1.407       .  A
C2023      C2037   1.443       .  S
C2024      C2029   1.499       .  S
C2024      C2025   1.404       .  A
C2025      C2026   1.397       .  A
C2025      H2044   1.083       .  S
C2026      C2027   1.413       .  A
C2026      C2038   1.446       .  S
C2027      C2028   1.401       .  A
C2028      H2043   1.084       .  S
C2029      C2030   1.410       .  A
C2029      C2034   1.416       .  A
C2030      C2031   1.403       .  A
C2030      H2045   1.084       .  S
C2031      C2032   1.410       .  A
C2031      C2035   1.444       .  S
C2032      C2033   1.404       .  A
C2033      C2034   1.400       .  A
C2033      H2046   1.086       .  S
C2034      C2036   1.443       .  S
C2035      N2039   1.157       .  T
C2036      N2040   1.157       .  T
C2037      N2042   1.157       .  T
C2038      N2041   1.157       .  T
C2047      C2048   1.412       .  A
C2047      C2052   1.396       .  A
C2047      C2061   1.445       .  S
C2048      C2053   1.494       .  S
C2048      C2049   1.411       .  A
C2049      C2050   1.407       .  A
C2049      H2068   1.085       .  S
C2050      C2051   1.408       .  A
C2050      C2062   1.443       .  S
C2051      C2052   1.404       .  A
C2052      H2067   1.086       .  S
C2053      C2054   1.411       .  A
C2053      C2058   1.410       .  A
C2054      C2055   1.411       .  A
C2054      H2069   1.084       .  S
C2055      C2056   1.412       .  A
C2055      C2059   1.442       .  S
C2056      C2057   1.408       .  A
C2057      C2058   1.390       .  A
C2057      H2070   1.085       .  S
C2058      C2060   1.446       .  S
C2059      N2063   1.157       .  T
C2060      N2064   1.157       .  T
C2061      N2066   1.157       .  T
C2062      N2065   1.157       .  T
C2071      C2072   1.411       .  A
C2071      C2076   1.410       .  A
C2071      C2085   1.442       .  S
C2072      C2077   1.490       .  S
C2072      C2073   1.400       .  A
C2073      C2074   1.396       .  A
C2073      H2092   1.085       .  S
C2074      C2075   1.417       .  A
C2074      C2086   1.446       .  S
C2075      C2076   1.407       .  A
C2076      H2091   1.084       .  S
C2077      C2078   1.400       .  A
C2077      C2082   1.413       .  A
C2078      C2079   1.402       .  A
C2078      H2093   1.085       .  S
C2079      C2080   1.419       .  A
C2079      C2083   1.445       .  S
C2080      C2081   1.404       .  A
C2081      C2082   1.406       .  A
C2081      H2094   1.085       .  S
C2082      C2084   1.443       .  S
C2083      N2087   1.157       .  T
C2084      N2088   1.157       .  T
C2085      N2090   1.157       .  T
C2086      N2089   1.157       .  T
