geometry optimzed in LAMMPS
_audit_creation_date              2020-11-30 
_audit_creation_method            'lammps2cif' 
_symmetry_space_group_name_H-M    'P1' 
_symmetry_Int_Tables_number       1 
_symmetry_cell_setting            triclinic 
loop_ 
_symmetry_equiv_pos_as_xyz 
  x,y,z 
_cell_length_a                    37.74376234719653 
_cell_length_b                    37.52215193749431 
_cell_length_c                    37.95885060830093 
_cell_angle_alpha                 89.50662688964225 
_cell_angle_beta                  90.49850690356577 
_cell_angle_gamma                 89.52616132805915 
loop_ 
_atom_site_label 
_atom_site_type_symbol 
_atom_site_fract_x 
_atom_site_fract_y 
_atom_site_fract_z 
_atom_site_charge 
C1          C  0.70328135  0.65989942  0.91237012     0.02830
C2          C  0.66864534  0.67083052  0.91406147    -0.13320
C3          C  0.65990719  0.70541759  0.90530971     0.00330
C4          C  0.68408284  0.72640459  0.88561214    -0.11850
C5          C  0.71944048  0.71380932  0.87862437     0.02820
C6          C  0.72617813  0.67797780  0.88914687    -0.11270
H7          H  0.65045970  0.65571476  0.93039286     0.08410
H8          H  0.67582874  0.75268753  0.87747684     0.05940
H9          H  0.74964117  0.66479422  0.88071968     0.05790
C10         C  0.83542673  0.65588759  0.76061038     0.02830
C11         C  0.82191440  0.67541926  0.79063201    -0.13320
C12         C  0.80968826  0.71236485  0.78733435     0.00330
C13         C  0.81172015  0.72687948  0.75312665    -0.11850
C14         C  0.82690269  0.70812769  0.72584651     0.02820
C15         C  0.82969657  0.67151849  0.72792413    -0.11270
H16         H  0.82180176  0.66203674  0.81568628     0.08410
H17         H  0.80358565  0.75367303  0.74700990     0.05940
H18         H  0.83565853  0.65732851  0.70419277     0.05790
C19         C  0.72188683  0.80176179  0.78982373     0.02830
C20         C  0.73021709  0.80964186  0.75355204    -0.13320
C21         C  0.70546283  0.82671898  0.73021984     0.00330
C22         C  0.67011734  0.82564080  0.73872828    -0.11850
C23         C  0.66031518  0.82337387  0.77370480     0.02820
C24         C  0.68566766  0.80988774  0.79917911    -0.11270
H25         H  0.75494894  0.80152586  0.74247396     0.08410
H26         H  0.65127129  0.83688557  0.71974146     0.05940
H27         H  0.67728457  0.80769265  0.82619846     0.05790
C28         C  0.78330228  0.72391020  0.85006685     0.01980
C29         C  0.74882928  0.73808031  0.86242347     0.01980
C30         C  0.73889018  0.77439389  0.85171273     0.01980
C31         C  0.74989724  0.78590350  0.81739289     0.01980
C32         C  0.78539426  0.77397293  0.80814737     0.01980
C33         C  0.79539125  0.73744725  0.81684106     0.01980
C34         C  0.36426962  0.32560420  0.90118142     0.02830
C35         C  0.34160491  0.30102210  0.88378671    -0.13320
C36         C  0.30466278  0.30787372  0.87838914     0.00330
C37         C  0.29278077  0.34238497  0.88984884    -0.11850
C38         C  0.31649561  0.36656429  0.90598806     0.02820
C39         C  0.35252344  0.36011959  0.90465035    -0.11270
H40         H  0.35267128  0.27667706  0.87453332     0.08410
H41         H  0.26562962  0.35091959  0.88708949     0.05940
H42         H  0.37010342  0.37907788  0.91728902     0.05790
C43         C  0.82583706  0.35953074  0.39422386     0.02830
C44         C  0.82074253  0.35721475  0.43002137    -0.13320
C45         C  0.81665693  0.32344738  0.44422570     0.00330
C46         C  0.80050688  0.29682872  0.42283685    -0.11850
C47         C  0.79547616  0.30238844  0.38563532     0.02820
C48         C  0.80776641  0.33536662  0.37266776    -0.11270
H49         H  0.83314142  0.37740812  0.44625916     0.08410
H50         H  0.79369698  0.27176026  0.43488297     0.05940
H51         H  0.80503386  0.34151025  0.34583394     0.05790
C52         C  0.34723654  0.84494142  0.37570991     0.02830
C53         C  0.33244683  0.81699134  0.35674302    -0.13320
C54         C  0.29959462  0.80323611  0.36810317     0.00330
C55         C  0.29322277  0.80496990  0.40538300    -0.11850
C56         C  0.31379917  0.82844474  0.42636157     0.02820
C57         C  0.33575999  0.85171878  0.40903906    -0.11270
H58         H  0.34387598  0.80993673  0.33178528     0.08410
H59         H  0.27149841  0.79062608  0.41714824     0.05940
H60         H  0.34639494  0.87469176  0.42262555     0.05790
C61         C  0.81608405  0.81258884  0.36682357     0.02830
C62         C  0.85017894  0.80273497  0.38062461    -0.13320
C63         C  0.87241559  0.82743151  0.39811280     0.00330
C64         C  0.86561874  0.86304220  0.39171490    -0.11850
C65         C  0.83022062  0.87328825  0.39014300     0.02820
C66         C  0.80582471  0.84900584  0.37416673    -0.11270
H67         H  0.86000616  0.77660026  0.37711190     0.08410
H68         H  0.88471271  0.88216887  0.40145190     0.05940
H69         H  0.77915453  0.85807619  0.36900583     0.05790
C70         C  0.81269638  0.80021133  0.79282732     0.02830
C71         C  0.80050829  0.83171959  0.77641113    -0.13320
C72         C  0.81149883  0.83698052  0.74147274     0.00330
C73         C  0.83627586  0.81338012  0.72829562    -0.11850
C74         C  0.86314440  0.80548587  0.75194159     0.02820
C75         C  0.84977504  0.79286423  0.78540313    -0.11270
H76         H  0.77953979  0.84743227  0.78769517     0.08410
H77         H  0.84177792  0.81293911  0.70029496     0.05940
H78         H  0.86594864  0.77847271  0.80433355     0.05790
C79         C  0.80170975  0.30460171  0.87589234     0.02830
C80         C  0.79124233  0.30080039  0.91152849    -0.13320
C81         C  0.81237718  0.31263619  0.93936656     0.00330
C82         C  0.84756929  0.32100965  0.93332289    -0.11850
C83         C  0.85863420  0.32955954  0.89945738     0.02820
C84         C  0.83676243  0.31885607  0.87032597    -0.11270
H85         H  0.76491048  0.29224790  0.91829853     0.08410
H86         H  0.86381613  0.32907622  0.95554332     0.05940
H87         H  0.84709714  0.32238397  0.84417762     0.05790
C88         C  0.81130163  0.70440511  0.87445691     0.02830
C89         C  0.80235316  0.69103092  0.90817467    -0.13320
C90         C  0.82547483  0.66958226  0.92882108     0.00330
C91         C  0.86104440  0.67135970  0.92188290    -0.11850
C92         C  0.87181716  0.68010879  0.88816006     0.02820
C93         C  0.84781640  0.69854118  0.86495509    -0.11270
H94         H  0.77790250  0.69797664  0.91863392     0.08410
H95         H  0.87924816  0.65657354  0.93904585     0.05940
H96         H  0.85776509  0.70703455  0.83972034     0.05790
C97         C  0.14941249  0.81873162  0.38131013     0.02830
C98         C  0.17478151  0.79482219  0.36830490    -0.13320
C99         C  0.21134475  0.80355616  0.36739194     0.00330
C100        C  0.22040603  0.83788638  0.38042978    -0.11850
C101        C  0.19414763  0.86150525  0.39334980     0.02820
C102        C  0.15888012  0.85389651  0.38666606    -0.11270
H103        H  0.16557762  0.76868695  0.36161620     0.08410
H104        H  0.24738356  0.84659316  0.38144704     0.05940
H105        H  0.13869467  0.87299989  0.39405888     0.05790
C106        C  0.19770786  0.87399028  0.75879691     0.02830
C107        C  0.16350752  0.86248371  0.75380636    -0.13320
C108        C  0.15720683  0.82624101  0.75417923     0.00330
C109        C  0.17956910  0.80342857  0.77470762    -0.11850
C110        C  0.21322859  0.81510309  0.78746226     0.02820
C111        C  0.22102902  0.85168740  0.77939783    -0.11270
H112        H  0.14574037  0.87939275  0.73824119     0.08410
H113        H  0.17104501  0.77663031  0.77914669     0.05940
H114        H  0.24536198  0.86252732  0.78847370     0.05790
O115        O  0.97653794  0.81874674  0.62763094    -0.80440
O116        O  0.06108998  0.80170335  0.53003154    -0.80460
O117        O  0.05070204  0.80913620  0.61786257    -0.80470
O118        O  0.98745264  0.80752336  0.53149676    -0.80410
O119        O  0.10238478  0.80059132  0.59361446    -0.80540
O120        O  0.93808323  0.81743829  0.56028933    -0.80450
O121        O  0.03174405  0.77264481  0.48771770    -0.80440
O122        O  0.00710612  0.79410020  0.67201477    -0.80480
C123        C  0.98157009  0.81318757  0.66181098     1.09250
C124        C  0.05668735  0.79298337  0.49679038     1.09140
C125        C  0.08473882  0.81011164  0.62060974     1.09270
C126        C  0.95400152  0.81624161  0.53071101     1.09150
O127        O  0.94334159  0.74914265  0.55427897    -0.80440
O128        O  0.08271179  0.73685242  0.61313249    -0.80520
O129        O  0.97400376  0.73842360  0.64590134    -0.80450
O130        O  0.04841330  0.71625264  0.52584819    -0.80430
O131        O  0.09347478  0.73849527  0.55298690    -0.80480
O132        O  0.93576486  0.76458260  0.61100621    -0.80450
O133        O  0.98001424  0.73160857  0.51409579    -0.80410
O134        O  0.04719054  0.74093776  0.65700387    -0.80480
Co135      Co  0.97114421  0.78471698  0.58227182     1.51530
Co136      Co  0.06361866  0.77156097  0.57780111     1.51690
Co137      Co  0.01340503  0.77121548  0.63031623     1.51570
Co138      Co  0.01818192  0.76032057  0.53261245     1.51470
O139        O  0.01374611  0.75059548  0.58326546    -1.42370
C140        C  0.94929227  0.73285998  0.52621293     1.09180
C141        C  0.07673148  0.73196559  0.64517855     1.09270
C142        C  0.94189013  0.74618294  0.63764595     1.09200
C143        C  0.08176963  0.71774401  0.53038764     1.09180
C144        C  0.32014401  0.67206152  0.91009433     0.02830
C145        C  0.29398855  0.69409778  0.89358322    -0.13320
C146        C  0.30112995  0.73049350  0.88403524     0.00330
C147        C  0.33692122  0.74154633  0.89023476    -0.11850
C148        C  0.36238103  0.71881475  0.90647557     0.02820
C149        C  0.35486215  0.68313148  0.91042902    -0.11270
H150        H  0.26875090  0.68227741  0.88850917     0.08410
H151        H  0.34549712  0.76809515  0.88416381     0.05940
H152        H  0.37442760  0.66614787  0.92361718     0.05790
C153        C  0.32328796  0.84258610  0.74240202     0.02830
C154        C  0.29679544  0.82564988  0.76210110    -0.13320
C155        C  0.30323536  0.81445503  0.79751093     0.00330
C156        C  0.33926337  0.81593783  0.80952175    -0.11850
C157        C  0.36598820  0.83074863  0.78844496     0.02820
C158        C  0.35820041  0.84008735  0.75370313    -0.11270
H159        H  0.27127188  0.82319540  0.74980785     0.08410
H160        H  0.34671311  0.80814043  0.83593678     0.05940
H161        H  0.37840337  0.85342303  0.73834221     0.05790
C162        C  0.27315747  0.80264919  0.82216266     0.01980
C163        C  0.24008300  0.78943498  0.80729318     0.03660
C164        C  0.22973699  0.75391492  0.81864474     0.01980
C165        C  0.23900127  0.74416950  0.85414397     0.01980
C166        C  0.27244090  0.75688706  0.86857038     0.01980
C167        C  0.28250674  0.79251346  0.85803732     0.01980
C168        C  0.19457207  0.66391794  0.77649786     0.02830
C169        C  0.20067548  0.67200201  0.74141248    -0.13320
C170        C  0.20202422  0.70745691  0.73124934     0.00330
C171        C  0.21545913  0.73219049  0.75564966    -0.11850
C172        C  0.21701073  0.72463447  0.79234992     0.02820
C173        C  0.20604309  0.68903224  0.80229809    -0.11270
H174        H  0.19460419  0.65212523  0.72183217     0.08410
H175        H  0.22261073  0.75799401  0.74588681     0.05940
H176        H  0.20603658  0.68022821  0.82932047     0.05790
O177        O  0.98560684  0.57659404  0.85272043    -0.80440
O178        O  0.04885491  0.43790329  0.85123069    -0.80460
O179        O  0.97295507  0.46245423  0.89588342    -0.80470
O180        O  0.05054534  0.57008207  0.86805885    -0.80410
O181        O  0.98083376  0.42687810  0.85079677    -0.80540
O182        O  0.03568597  0.59817983  0.81786017    -0.80450
O183        O  0.06831722  0.48351351  0.88483094    -0.80440
O184        O  0.97775040  0.54123801  0.89707749    -0.80480
C185        C  0.97581631  0.57225216  0.88371353     1.09250
C186        C  0.06720936  0.44987575  0.87714658     1.09140
C187        C  0.97144418  0.43121105  0.88205978     1.09270
C188        C  0.05049526  0.59934377  0.84807441     1.09150
O189        O  0.06863162  0.54398076  0.79547667    -0.80440
O190        O  0.96568511  0.45949543  0.78653477    -0.80520
O191        O  0.94032993  0.54002941  0.82846396    -0.80450
O192        O  0.08097933  0.48131008  0.81778340    -0.80430
O193        O  0.04315627  0.46565406  0.77823689    -0.80480
O194        O  0.97967184  0.55555327  0.78686886    -0.80450
O195        O  0.10333403  0.53682328  0.84319264    -0.80410
O196        O  0.93413428  0.47147598  0.83360583    -0.80480
Co197      Co  0.02014548  0.55160181  0.82254001     1.51530
Co198      Co  0.00998268  0.45182840  0.81666768     1.51690
Co199      Co  0.96050462  0.50428770  0.86346820     1.51570
Co200      Co  0.05768506  0.51876735  0.84559378     1.51470
O201        O  0.00745197  0.50167176  0.83762652    -1.42370
C202        C  0.09965753  0.54838046  0.81175974     1.09180
C203        C  0.93590488  0.45935147  0.80293402     1.09270
C204        C  0.94733693  0.55418499  0.79851429     1.09200
C205        C  0.07469207  0.46588445  0.78965337     1.09180
C206        C  0.15759125  0.32765045  0.89632399     0.02830
C207        C  0.16675522  0.32495159  0.93162741    -0.13320
C208        C  0.20219913  0.32205756  0.94068884     0.00330
C209        C  0.22595945  0.30678713  0.91617472    -0.11850
C210        C  0.21643459  0.30265442  0.87983497     0.02820
C211        C  0.18077241  0.31301860  0.87088559    -0.11270
H212        H  0.14904997  0.33702347  0.95067129     0.08410
H213        H  0.25238092  0.30051354  0.92528171     0.05940
H214        H  0.17094025  0.31149947  0.84425397     0.05790
C215        C  0.19965085  0.68654894  0.92504073     0.02830
C216        C  0.21871050  0.71542122  0.91163489    -0.13320
C217        C  0.21010028  0.72850251  0.87771328     0.00330
C218        C  0.17369609  0.72424358  0.86666781    -0.11850
C219        C  0.15193292  0.69905379  0.88443145     0.02820
C220        C  0.16831594  0.67737169  0.90941900    -0.11270
H221        H  0.24221455  0.72441896  0.92476225     0.08410
H222        H  0.16351651  0.73796286  0.84348446     0.05940
H223        H  0.15596927  0.65286901  0.91812988     0.05790
C224        C  0.30004059  0.81968998  0.88429229     0.02830
C225        C  0.31053237  0.85480923  0.87337404    -0.13320
C226        C  0.32806719  0.87842392  0.89683228     0.00330
C227        C  0.32879034  0.87019209  0.93246348    -0.11850
C228        C  0.32696258  0.83481382  0.94276760     0.02820
C229        C  0.30889252  0.81058627  0.92022637    -0.11270
H230        H  0.30629246  0.86357309  0.84665508     0.08410
H231        H  0.34231446  0.88857406  0.94992164     0.05940
H232        H  0.30346412  0.78436875  0.93049176     0.05790
C233        C  0.72663658  0.80237855  0.87943666     0.02830
C234        C  0.72087068  0.83993663  0.87226280    -0.13320
C235        C  0.71052967  0.86408534  0.89989093     0.00330
C236        C  0.71281373  0.85143897  0.93405078    -0.11850
C237        C  0.70516760  0.81584458  0.93879450     0.02820
C238        C  0.71874489  0.79154430  0.91440982    -0.11270
H239        H  0.72360293  0.84997338  0.84585482     0.08410
H240        H  0.70583492  0.86975150  0.95494958     0.05940
H241        H  0.72224811  0.76456601  0.92304557     0.05790
C242        C  0.18573952  0.65463561  0.37537976     0.02830
C243        C  0.20089372  0.68021504  0.35236544    -0.13320
C244        C  0.21009166  0.71502529  0.36443296     0.00330
C245        C  0.20177761  0.72266318  0.40036320    -0.11850
C246        C  0.18531170  0.69707379  0.42220312     0.02820
C247        C  0.18266143  0.66231136  0.41086693    -0.11270
H248        H  0.20423013  0.67306632  0.32515626     0.08410
H249        H  0.20604850  0.74875951  0.41117928     0.05940
H250        H  0.16951241  0.64316803  0.42789481     0.05790
C251        C  0.27246327  0.78929369  0.34149063     0.01980
C252        C  0.23879805  0.77678265  0.35340534     0.01980
C253        C  0.22674159  0.74342889  0.33979764     0.01980
C254        C  0.23578177  0.73587334  0.30390042     0.01980
C255        C  0.26949839  0.74796727  0.29209151     0.01980
C256        C  0.28197283  0.78199172  0.30554801     0.01980
C257        C  0.29565004  0.71880775  0.28028115     0.02830
C258        C  0.28504279  0.68257456  0.27386356    -0.13320
C259        C  0.30886478  0.65731921  0.25948317     0.00330
C260        C  0.34456644  0.66597178  0.25875975    -0.11850
C261        C  0.35359698  0.70164051  0.25746346     0.02820
C262        C  0.33146020  0.72690689  0.27320528    -0.11270
H263        H  0.25816481  0.67415646  0.27786727     0.08410
H264        H  0.36286980  0.64678703  0.24747859     0.05940
H265        H  0.34187793  0.75321198  0.27696988     0.05790
O266        O  0.32308476  0.47324688  0.04397584    -0.80440
O267        O  0.30673933  0.55060126  0.12244510    -0.80460
O268        O  0.28014531  0.55171254  0.00338269    -0.80470
O269        O  0.26326919  0.49145996  0.15089655    -0.80410
O270        O  0.31932130  0.55786106  0.04640911    -0.80540
O271        O  0.31241837  0.47329965  0.12487088    -0.80450
O272        O  0.25870325  0.53164670  0.15052041    -0.80440
O273        O  0.28233480  0.48350623  0.00277440    -0.80480
C274        C  0.31217740  0.47116917  0.01188295     1.09250
C275        C  0.28738253  0.55123095  0.14982270     1.09140
C276        C  0.30963425  0.56342772  0.01449253     1.09270
C277        C  0.29356868  0.47598507  0.15306571     1.09150
O278        O  0.24774576  0.44286114  0.10975232    -0.80440
O279        O  0.25119846  0.59070112  0.04449752    -0.80520
O280        O  0.21313982  0.47467300  0.02967643    -0.80450
O281        O  0.20186614  0.54786550  0.12849604    -0.80430
O282        O  0.24226614  0.58536776  0.10999119    -0.80480
O283        O  0.25753360  0.43817783  0.04217579    -0.80450
O284        O  0.20360438  0.46667307  0.13823250    -0.80410
O285        O  0.20984799  0.55146583  0.03312942    -0.80480
Co286      Co  0.28519775  0.46294058  0.07933228     1.51530
Co287      Co  0.28045046  0.56648834  0.08057854     1.51690
Co288      Co  0.24618728  0.51536594  0.02132798     1.51570
Co289      Co  0.22934877  0.50401302  0.11104417     1.51470
O290        O  0.26296010  0.51499410  0.07297073    -1.42370
C291        C  0.22162663  0.43871110  0.12976712     1.09180
C292        C  0.22136688  0.58308883  0.03156548     1.09270
C293        C  0.22729427  0.44370932  0.02860081     1.09200
C294        C  0.21415622  0.57966102  0.12661626     1.09180
O295        O  0.96204288  0.46784438  0.38395453    -0.80440
O296        O  0.08060988  0.52291218  0.34516494    -0.80460
O297        O  0.04756023  0.43766145  0.34001104    -0.80470
O298        O  0.98100830  0.57902511  0.33932585    -0.80410
O299        O  0.07811673  0.48884848  0.33784704    -0.80540
O300        O  0.96860878  0.54101200  0.38053308    -0.80450
O301        O  0.04225943  0.56245378  0.35371797    -0.80440
O302        O  0.97575551  0.42373768  0.34916362    -0.80480
C303        C  0.95757415  0.43603004  0.37439151     1.09250
C304        C  0.07366506  0.55262641  0.35860695     1.09140
C305        C  0.07528728  0.45536877  0.34668443     1.09270
C306        C  0.96678997  0.57226282  0.36846279     1.09150
O307        O  0.93246112  0.54093299  0.31340246    -0.80440
O308        O  0.07560876  0.48945082  0.27758346    -0.80520
O309        O  0.96349892  0.45237719  0.28024370    -0.80450
O310        O  0.03043924  0.59094727  0.28928232    -0.80430
O311        O  0.07705575  0.55622444  0.28542212    -0.80480
O312        O  0.92495780  0.46772052  0.31963443    -0.80450
O313        O  0.97430191  0.54692661  0.27417909    -0.80410
O314        O  0.03225432  0.45588281  0.26780848    -0.80480
Co315      Co  0.95059640  0.50432282  0.34817655     1.51530
Co316      Co  0.04488672  0.52018442  0.30606620     1.51690
Co317      Co  0.00506236  0.44575756  0.31062591     1.51570
Co318      Co  0.01175430  0.54829753  0.31165577     1.51470
O319        O  0.00151877  0.49705529  0.32910730    -1.42370
C320        C  0.94350320  0.55546277  0.28530986     1.09180
C321        C  0.06516684  0.45969853  0.26803634     1.09270
C322        C  0.93388244  0.44819621  0.29416556     1.09200
C323        C  0.06315841  0.58729231  0.28217742     1.09180
C324        C  0.22275790  0.31194241  0.28856386     0.02830
C325        C  0.22963287  0.31299222  0.25109807    -0.13320
C326        C  0.20694137  0.33230679  0.22733384     0.00330
C327        C  0.17959861  0.35167894  0.24149965    -0.11850
C328        C  0.16968359  0.34843830  0.27580489     0.02820
C329        C  0.18925595  0.32612538  0.29896199    -0.11270
H330        H  0.25255570  0.29970820  0.24038158     0.08410
H331        H  0.16584781  0.37175694  0.22568066     0.05940
H332        H  0.17914413  0.32143371  0.32489927     0.05790
C333        C  0.80681501  0.31285877  0.23170913     0.02830
C334        C  0.84229675  0.31628829  0.24120455    -0.13320
C335        C  0.85048071  0.32037724  0.27646787     0.00330
C336        C  0.82973983  0.30250767  0.30135408    -0.11850
C337        C  0.79401028  0.29456907  0.29418803     0.02820
C338        C  0.78260576  0.30061424  0.25807823    -0.11270
H339        H  0.86024909  0.32801052  0.22216419     0.08410
H340        H  0.84026779  0.29800314  0.32705890     0.05940
H341        H  0.75507761  0.29797511  0.25068741     0.05790
C342        C  0.87425272  0.69463415  0.25737194     0.02830
C343        C  0.86453343  0.69684075  0.22239121    -0.13320
C344        C  0.82845546  0.69762272  0.21472631     0.00330
C345        C  0.80478572  0.71324300  0.23892143    -0.11850
C346        C  0.81595133  0.72145562  0.27386333     0.02820
C347        C  0.85214942  0.71335735  0.28138136    -0.11270
H348        H  0.88204401  0.68405560  0.20366632     0.08410
H349        H  0.77774436  0.71693401  0.23034419     0.05940
H350        H  0.86271109  0.72210306  0.30566237     0.05790
O351        O  0.78848346  0.52522370  0.01676157    -0.80440
O352        O  0.79877776  0.46092396  0.15705172    -0.80460
O353        O  0.79007895  0.57758698  0.12139977    -0.80470
O354        O  0.75433372  0.40930988  0.06215878    -0.80410
O355        O  0.81667321  0.53459832  0.15266237    -0.80540
O356        O  0.78512587  0.45250311  0.03632278    -0.80450
O357        O  0.80087086  0.43360098  0.10665993    -0.80440
O358        O  0.80604244  0.55611336  0.06022576    -0.80480
C359        C  0.80495318  0.55183184  0.02758309     1.09250
C360        C  0.80633824  0.43380560  0.13947531     1.09140
C361        C  0.81267508  0.56752035  0.14434288     1.09270
C362        C  0.77565917  0.41910228  0.03851423     1.09150
O363        O  0.73253557  0.48875406  0.00469747    -0.80440
O364        O  0.74681302  0.54804181  0.16324754    -0.80520
O365        O  0.74750417  0.59463991  0.06373377    -0.80450
O366        O  0.73020473  0.43397805  0.12396453    -0.80430
O367        O  0.72706635  0.48125754  0.15645625    -0.80480
O368        O  0.72218737  0.54501960  0.04487437    -0.80450
O369        O  0.71098463  0.46213673  0.05142772    -0.80410
O370        O  0.71670526  0.55857685  0.11553809    -0.80480
Co371      Co  0.75464614  0.49911768  0.04669217     1.51530
Co372      Co  0.77265531  0.50537188  0.15280047     1.51690
Co373      Co  0.76107098  0.55286605  0.08638927     1.51570
Co374      Co  0.75705856  0.45365843  0.08317452     1.51470
O375        O  0.77067732  0.50422122  0.09867962    -1.42370
C376        C  0.71166092  0.46605898  0.01700809     1.09180
C377        C  0.72211478  0.56389046  0.14803022     1.09270
C378        C  0.72934157  0.57871414  0.04044952     1.09200
C379        C  0.72357555  0.44827070  0.15325963     1.09180
C380        C  0.72888196  0.80862525  0.36189034     0.02830
C381        C  0.69325638  0.81754031  0.35188842    -0.13320
C382        C  0.66899621  0.83080445  0.37675414     0.00330
C383        C  0.67853992  0.83158194  0.41207938    -0.11850
C384        C  0.71365418  0.82691180  0.42227669     0.02820
C385        C  0.73776646  0.81219284  0.39836801    -0.11270
H386        H  0.68420677  0.81538944  0.32500747     0.08410
H387        H  0.66013913  0.84309477  0.43076852     0.05940
H388        H  0.76388888  0.80597525  0.40838094     0.05790
C389        C  0.85083708  0.66744394  0.37905569     0.02830
C390        C  0.84892207  0.67518843  0.41454595    -0.13320
C391        C  0.83840801  0.70856843  0.42512820     0.00330
C392        C  0.81981952  0.73094392  0.40062377    -0.11850
C393        C  0.81800870  0.72273981  0.36385925     0.02820
C394        C  0.83164148  0.68853908  0.35456332    -0.11270
H395        H  0.86397993  0.65875217  0.43318871     0.08410
H396        H  0.80873611  0.75559343  0.40967983     0.05940
H397        H  0.82811354  0.67784408  0.32876781     0.05790
C398        C  0.75653873  0.79606501  0.33497952     0.01980
C399        C  0.79133571  0.78523732  0.34715356     0.01980
C400        C  0.80307287  0.74986586  0.33609359     0.01980
C401        C  0.79037153  0.73724415  0.30191622     0.01980
C402        C  0.75524785  0.74845232  0.29103153     0.01980
C403        C  0.74482577  0.78390435  0.30086658     0.01980
C404        C  0.66881179  0.70702001  0.25057700     0.02830
C405        C  0.67571494  0.67120988  0.25551397    -0.13320
C406        C  0.71065769  0.66021209  0.25868649     0.00330
C407        C  0.73609247  0.68435331  0.27212141    -0.11850
C408        C  0.72751676  0.72127487  0.27699629     0.02820
C409        C  0.69228301  0.73167238  0.26635562    -0.11270
H410        H  0.65664708  0.65247447  0.24494468     0.08410
H411        H  0.76254456  0.67430739  0.27704022     0.05940
H412        H  0.68314963  0.75865657  0.26888144     0.05790
O413        O  0.59902293  0.78026504  0.05235574    -0.80440
O414        O  0.46881855  0.82079650  0.12766105    -0.80460
O415        O  0.47761505  0.79266499  0.01147486    -0.80470
O416        O  0.55193754  0.77622387  0.15474872    -0.80410
O417        O  0.46358991  0.82764716  0.05393892    -0.80540
O418        O  0.56580623  0.80884895  0.10851889    -0.80450
O419        O  0.47990688  0.77879368  0.16628509    -0.80440
O420        O  0.55098247  0.80080207  0.02542134    -0.80480
C421        C  0.58548086  0.79830776  0.02767510     1.09250
C422        C  0.46333996  0.80712746  0.15763340     1.09140
C423        C  0.45902359  0.81810255  0.02229000     1.09270
C424        C  0.57093155  0.80004711  0.14082553     1.09150
O425        O  0.58726281  0.73978231  0.10400221    -0.80440
O426        O  0.43253801  0.75950024  0.05202261    -0.80520
O427        O  0.52290540  0.74653102  0.99136730    -0.80450
O428        O  0.47257163  0.71232368  0.13177662    -0.80430
O429        O  0.43314983  0.75469362  0.12276787    -0.80480
O430        O  0.55515530  0.72742291  0.03674642    -0.80450
O431        O  0.54539002  0.70772824  0.12390882    -0.80410
O432        O  0.47538613  0.72322756  0.03754801    -0.80480
Co433      Co  0.55617440  0.77017263  0.07339786     1.51530
Co434      Co  0.45365802  0.78977494  0.08915829     1.51690
Co435      Co  0.51197606  0.76108248  0.03662388     1.51570
Co436      Co  0.51207661  0.74503070  0.14009997     1.51470
O437        O  0.50487594  0.76770608  0.08965691    -1.42370
C438        C  0.57765630  0.71616351  0.12527817     1.09180
C439        C  0.44363495  0.73393326  0.03364453     1.09270
C440        C  0.54875694  0.72859074  0.00279705     1.09200
C441        C  0.44229308  0.72547054  0.13724965     1.09180
C442        C  0.32739749  0.82709162  0.22461116     0.02830
C443        C  0.30858565  0.80299669  0.24611335    -0.13320
C444        C  0.29819389  0.81155580  0.28087935     0.00330
C445        C  0.30565015  0.84788902  0.29133221    -0.11850
C446        C  0.32432095  0.87199735  0.26876046     0.02820
C447        C  0.32807274  0.86275107  0.23367735    -0.11270
H448        H  0.30403448  0.77686626  0.23624968     0.08410
H449        H  0.29843470  0.85738401  0.31704167     0.05940
H450        H  0.34270610  0.88085579  0.21679491     0.05790
C451        C  0.70975345  0.87114251  0.25548529     0.02830
C452        C  0.70797403  0.86089122  0.22055386    -0.13320
C453        C  0.70574843  0.82481885  0.21361410     0.00330
C454        C  0.72270452  0.80088344  0.23749170    -0.11850
C455        C  0.73133207  0.81099789  0.27266556     0.02820
C456        C  0.72503733  0.84745612  0.28071763    -0.11270
H457        H  0.69479137  0.87920314  0.20229575     0.08410
H458        H  0.72718848  0.77420408  0.22894128     0.05940
H459        H  0.72924915  0.85707674  0.30705313     0.05790
C460        C  0.70784807  0.30580249  0.30489130     0.02830
C461        C  0.72113089  0.33993497  0.29546669    -0.13320
C462        C  0.69934134  0.36639960  0.28013542     0.00330
C463        C  0.66293311  0.36194720  0.28025920    -0.11850
C464        C  0.64967143  0.32762449  0.28317141     0.02820
C465        C  0.67067561  0.30107127  0.30014640    -0.11270
H466        H  0.74878938  0.34569302  0.29721190     0.08410
H467        H  0.64681363  0.38189963  0.26653007     0.05940
H468        H  0.65828973  0.27605212  0.30649810     0.05790
C469        C  0.78055342  0.27394797  0.36001961     0.01980
C470        C  0.76886711  0.28385652  0.32481270     0.01980
C471        C  0.73333420  0.27560072  0.31696690     0.01980
C472        C  0.72203972  0.24076781  0.32775682     0.01980
C473        C  0.73380457  0.22706536  0.36139376     0.01980
C474        C  0.76857148  0.23995763  0.37346265     0.01980
C475        C  0.70653042  0.20642660  0.38534377     0.02830
C476        C  0.67154511  0.19563889  0.37382673    -0.13320
C477        C  0.64706188  0.17878807  0.39718457     0.00330
C478        C  0.65467318  0.18048069  0.43287191    -0.11850
C479        C  0.68981746  0.17910228  0.44267769     0.02820
C480        C  0.71457428  0.19683335  0.42090209    -0.11270
H481        H  0.66269857  0.20039376  0.34754808     0.08410
H482        H  0.63530143  0.17065302  0.45148189     0.05940
H483        H  0.73951227  0.20363624  0.43191845     0.05790
O484        O  0.45772248  0.97638006  0.36839363    -0.80440
O485        O  0.55279319  0.03051074  0.37538870    -0.80460
O486        O  0.53858304  0.91472327  0.33497141    -0.80470
O487        O  0.49274731  0.07432296  0.33418648    -0.80410
O488        O  0.54648680  0.95319706  0.37747912    -0.80540
O489        O  0.44956796  0.04664976  0.36292058    -0.80450
O490        O  0.52986785  0.06732942  0.33423230    -0.80440
O491        O  0.47159825  0.93128679  0.33378023    -0.80480
C492        C  0.45464752  0.94427037  0.35896132     1.09250
C493        C  0.55049010  0.06159418  0.36134791     1.09140
C494        C  0.54937810  0.92168101  0.36576307     1.09270
C495        C  0.46421320  0.07554256  0.35380606     1.09150
O496        O  0.44851042  0.03468852  0.29758849    -0.80440
O497        O  0.58760367  0.95345007  0.31400743    -0.80520
O498        O  0.47398593  0.96365652  0.26831911    -0.80450
O499        O  0.55829319  0.05337225  0.27892191    -0.80430
O500        O  0.59224920  0.02225643  0.31601676    -0.80480
O501        O  0.44208559  0.99570384  0.30529700    -0.80450
O502        O  0.48427604  0.07235190  0.26962817    -0.80410
O503        O  0.55022693  0.94750911  0.26863699    -0.80480
Co504      Co  0.48020350  0.01506550  0.34063921     1.51530
Co505      Co  0.56673127  0.98973856  0.34559281     1.51690
Co506      Co  0.50915105  0.94238661  0.30110671     1.51570
Co507      Co  0.50963402  0.03587669  0.29498248     1.51470
O508        O  0.52059612  0.99108906  0.31994433    -1.42370
C509        C  0.45276593  0.06316633  0.27788819     1.09180
C510        C  0.58122818  0.94474129  0.28234978     1.09270
C511        C  0.44390290  0.97070636  0.28183162     1.09200
C512        C  0.58873332  0.04562077  0.29264138     1.09180
O513        O  0.47994257  0.29796269  0.02825152    -0.80440
O514        O  0.55596048  0.27796129  0.16354411    -0.80460
O515        O  0.47495959  0.32207339  0.11596961    -0.80470
O516        O  0.56380512  0.32154698  0.04778319    -0.80410
O517        O  0.48687604  0.28398072  0.15949086    -0.80540
O518        O  0.54546547  0.28011093  0.01146663    -0.80450
O519        O  0.56887860  0.32108510  0.12559090    -0.80440
O520        O  0.43162720  0.30059421  0.06017032    -0.80480
C521        C  0.44618994  0.30446218  0.03049333     1.09250
C522        C  0.56962692  0.30797638  0.15677020     1.09140
C523        C  0.47212165  0.31226884  0.14827837     1.09270
C524        C  0.56260527  0.30847719  0.01674047     1.09150
O525        O  0.54722541  0.21336973  0.04680702    -0.80440
O526        O  0.47753790  0.21502873  0.13146022    -0.80520
O527        O  0.46201708  0.23496601  0.05415613    -0.80450
O528        O  0.59536315  0.25045066  0.11927941    -0.80430
O529        O  0.55381850  0.21065596  0.12723966    -0.80480
O530        O  0.49226301  0.23177899  0.00445959    -0.80450
O531        O  0.59091090  0.25126587  0.05137904    -0.80410
O532        O  0.44135395  0.25790735  0.11553532    -0.80480
Co533      Co  0.51259642  0.25379516  0.04327423     1.51530
Co534      Co  0.51913228  0.24716731  0.14154650     1.51690
Co535      Co  0.47318727  0.28195870  0.08188102     1.51570
Co536      Co  0.57540281  0.28627549  0.08644998     1.51470
O537        O  0.52375940  0.26914397  0.09240450    -1.42370
C538        C  0.57900648  0.22216287  0.04032334     1.09180
C539        C  0.44659891  0.22916394  0.13202847     1.09270
C540        C  0.46377640  0.22652689  0.02135783     1.09200
C541        C  0.58543459  0.22085749  0.13162421     1.09180
C542        C  0.33190976  0.16002212  0.26950993     0.02830
C543        C  0.33069851  0.16952565  0.23421999    -0.13320
C544        C  0.32758327  0.20511455  0.22505068     0.00330
C545        C  0.31126983  0.22875710  0.24905928    -0.11850
C546        C  0.30801406  0.22013423  0.28580762     0.02820
C547        C  0.31825673  0.18428502  0.29484917    -0.11270
H548        H  0.34291190  0.15163994  0.21537002     0.08410
H549        H  0.30228840  0.25396839  0.23850788     0.05940
H550        H  0.31621928  0.17502128  0.32136417     0.05790
C551        C  0.34869763  0.16534667  0.88982238     0.02830
C552        C  0.35108786  0.17388474  0.92482074    -0.13320
C553        C  0.34086988  0.20732752  0.93575470     0.00330
C554        C  0.31961805  0.22933299  0.91288581    -0.11850
C555        C  0.31130407  0.21882898  0.87729354     0.02820
C556        C  0.32239625  0.18330082  0.86917563    -0.11270
H557        H  0.36908787  0.15830988  0.94153737     0.08410
H558        H  0.31138084  0.25484683  0.92279133     0.05940
H559        H  0.31180853  0.17028860  0.84645240     0.05790
C560        C  0.67786119  0.20879023  0.93003147     0.02830
C561        C  0.67428715  0.17392039  0.92023043    -0.13320
C562        C  0.68265502  0.16311779  0.88684859     0.00330
C563        C  0.70173428  0.18592620  0.86417827    -0.11850
C564        C  0.70957641  0.22193761  0.87385974     0.02820
C565        C  0.69813021  0.23222201  0.90860189    -0.11270
H566        H  0.65903183  0.15607435  0.93693506     0.08410
H567        H  0.70926676  0.17557083  0.83890858     0.05940
H568        H  0.70414694  0.25800989  0.91916933     0.05790
O569        O  0.56162223  0.95741776  0.87288585    -0.80440
O570        O  0.50300207  0.09043279  0.86772419    -0.80460
O571        O  0.60172928  0.03964822  0.83881758    -0.80470
O572        O  0.43547207  0.98565290  0.83672337    -0.80410
O573        O  0.55905776  0.04340595  0.87812833    -0.80540
O574        O  0.47888792  0.97252255  0.87456789    -0.80450
O575        O  0.46706658  0.04498853  0.85485642    -0.80440
O576        O  0.60119857  0.97019328  0.83157387    -0.80480
C577        C  0.59368689  0.95725091  0.86150072     1.09250
C578        C  0.47249121  0.07600885  0.86880369     1.09140
C579        C  0.59107665  0.04832276  0.86913118     1.09270
C580        C  0.44494219  0.97143282  0.86558889     1.09150
O581        O  0.50381160  0.91508259  0.84460198    -0.80440
O582        O  0.55681478  0.08651756  0.81589215    -0.80520
O583        O  0.57005506  0.97451506  0.76332239    -0.80450
O584        O  0.46090473  0.02637332  0.78363379    -0.80430
O585        O  0.49188453  0.07233683  0.80078576    -0.80480
O586        O  0.55191558  0.93701461  0.80375126    -0.80450
O587        O  0.48360748  0.95008852  0.80007964    -0.80410
O588        O  0.57192209  0.05226408  0.77099482    -0.80480
Co589      Co  0.52073905  0.96139848  0.83829555     1.51530
Co590      Co  0.52342184  0.05417024  0.84066913     1.51690
Co591      Co  0.58261957  0.00911568  0.80103790     1.51570
Co592      Co  0.48074386  0.99968885  0.82488588     1.51470
O593        O  0.53230241  0.01001208  0.81921588    -1.42370
C594        C  0.48425314  0.91935917  0.81716448     1.09180
C595        C  0.57158715  0.08260593  0.78618345     1.09270
C596        C  0.56653867  0.94269929  0.77461812     1.09200
C597        C  0.46599354  0.05984722  0.78361249     1.09180
C598        C  0.71253769  0.31062156  0.87424183     0.02830
C599        C  0.72338424  0.34449053  0.88777890    -0.13320
C600        C  0.69838779  0.36910291  0.90191301     0.00330
C601        C  0.66267407  0.36292063  0.89712140    -0.11850
C602        C  0.65181288  0.32812708  0.89428932     0.02820
C603        C  0.67544689  0.30313025  0.87852943    -0.11270
H604        H  0.75069786  0.35200668  0.88737829     0.08410
H605        H  0.64411419  0.38219924  0.90793500     0.05940
H606        H  0.66474840  0.27784675  0.87076561     0.05790
C607        C  0.81568000  0.31919856  0.72228844     0.02830
C608        C  0.81313463  0.35532291  0.72792310    -0.13320
C609        C  0.81908519  0.36753455  0.76173897     0.00330
C610        C  0.80809464  0.34412125  0.78999045    -0.11850
C611        C  0.79899852  0.30751722  0.78386056     0.02820
C612        C  0.80214449  0.29631933  0.74819444    -0.11270
H613        H  0.81462877  0.37259056  0.70542021     0.08410
H614        H  0.80718919  0.35399225  0.81643469     0.05940
H615        H  0.79512745  0.26992491  0.73991782     0.05790
C616        C  0.78783722  0.28099444  0.81355764     0.01980
C617        C  0.77474258  0.29440082  0.84661539     0.01980
C618        C  0.73931195  0.28342512  0.85727000     0.01980
C619        C  0.72910785  0.24752106  0.84769177     0.01980
C620        C  0.74339009  0.23375936  0.81485978     0.01980
C621        C  0.77867612  0.24451732  0.80509113     0.01980
C622        C  0.65617438  0.20730788  0.76674312     0.02830
C623        C  0.68018235  0.21966543  0.79237942    -0.13320
C624        C  0.71728190  0.22111483  0.78583915     0.00330
C625        C  0.72785186  0.20987275  0.75138678    -0.11850
C626        C  0.70252749  0.19903598  0.72591701     0.02820
C627        C  0.66704398  0.20614875  0.73205233    -0.11270
H628        H  0.66945917  0.22559492  0.81785737     0.08410
H629        H  0.75498910  0.20842284  0.74362373     0.05940
H630        H  0.64812570  0.19734585  0.71230209     0.05790
O631        O  0.73737760  0.93069612  0.60888650    -0.80440
O632        O  0.74137188  0.07022125  0.55964864    -0.80460
O633        O  0.70807219  0.04748911  0.63511427    -0.80470
O634        O  0.72881060  0.94824355  0.54218587    -0.80410
O635        O  0.75509440  0.08052155  0.62117976    -0.80540
O636        O  0.77455204  0.91249692  0.55627354    -0.80450
O637        O  0.71465218  0.02741661  0.53093833    -0.80440
O638        O  0.69793594  0.96912104  0.62611845    -0.80480
C639        C  0.70870350  0.93709422  0.62422351     1.09250
C640        C  0.71836694  0.06029686  0.53734600     1.09140
C641        C  0.72480617  0.07756863  0.63496854     1.09270
C642        C  0.74555558  0.91733467  0.53963284     1.09150
O643        O  0.80373149  0.97076551  0.53448297    -0.80440
O644        O  0.81448706  0.04136630  0.63313402    -0.80520
O645        O  0.76876350  0.96101913  0.65656376    -0.80450
O646        O  0.78942836  0.04056631  0.53253915    -0.80430
O647        O  0.81071820  0.08207727  0.56959625    -0.80480
O648        O  0.80741277  0.95143199  0.61265573    -0.80450
O649        O  0.76245016  0.98688767  0.49565229    -0.80410
O650        O  0.76986556  0.02950421  0.66789416    -0.80480
Co651      Co  0.76999532  0.95730911  0.57687287     1.51530
Co652      Co  0.78094240  0.04841730  0.59078547     1.51690
Co653      Co  0.73572030  0.00136820  0.64320932     1.51570
Co654      Co  0.75609659  0.99721601  0.54313772     1.51470
O655        O  0.75597530  0.00513947  0.59515146    -1.42370
C656        C  0.79173775  0.97141834  0.50179152     1.09180
C657        C  0.79977533  0.04288592  0.66369924     1.09270
C658        C  0.79745615  0.94741372  0.64446411     1.09200
C659        C  0.80765764  0.06909265  0.53852574     1.09180
C660        C  0.81262424  0.15797172  0.41863927     0.02830
C661        C  0.78942579  0.17885895  0.39777062    -0.13320
C662        C  0.79686485  0.21507506  0.39043888     0.00330
C663        C  0.83202177  0.22665551  0.39957304    -0.11850
C664        C  0.85566736  0.20420240  0.41863644     0.02820
C665        C  0.84665356  0.16931238  0.42479809    -0.11270
H666        H  0.76504922  0.16744777  0.38900014     0.08410
H667        H  0.84140073  0.25272968  0.39278150     0.05940
H668        H  0.86431858  0.15275971  0.44095181     0.05790
C669        C  0.85162467  0.21334480  0.74228041     0.02830
C670        C  0.83717938  0.23108522  0.77148820    -0.13320
C671        C  0.80526638  0.21838595  0.78683283     0.00330
C672        C  0.79946971  0.18045221  0.78299422    -0.11850
C673        C  0.81818561  0.16057535  0.75643390     0.02820
C674        C  0.83898687  0.18024879  0.73380186    -0.11270
H675        H  0.84794031  0.25645881  0.77887692     0.08410
H676        H  0.77971007  0.16784432  0.79909668     0.05940
H677        H  0.84820847  0.16825362  0.70969515     0.05790
C678        C  0.30608719  0.21252492  0.78730313     0.02830
C679        C  0.34028474  0.19682572  0.79617982    -0.13320
C680        C  0.36076249  0.17518967  0.77247449     0.00330
C681        C  0.35299423  0.17937587  0.73750889    -0.11850
C682        C  0.31856011  0.18688766  0.72814257     0.02820
C683        C  0.29737423  0.20810368  0.75085637    -0.11270
H684        H  0.35210269  0.20386285  0.81987404     0.08410
H685        H  0.36968401  0.16566219  0.71862432     0.05940
H686        H  0.27425311  0.22080228  0.74000820     0.05790
C687        C  0.27934416  0.27928993  0.86196527     0.01980
C688        C  0.29210364  0.24449092  0.84972254     0.01980
C689        C  0.28002568  0.23289968  0.81416732     0.01980
C690        C  0.24445991  0.24688137  0.80252606     0.01980
C691        C  0.23313972  0.28148800  0.81641984     0.01980
C692        C  0.24381872  0.28966336  0.85190051     0.01980
O693        O  0.28037225  0.91585371  0.56292258    -0.80440
O694        O  0.32488664  0.05353195  0.62045864    -0.80460
O695        O  0.30389345  0.03213719  0.50493518    -0.80470
O696        O  0.27506189  0.97612631  0.65268506    -0.80410
O697        O  0.33347433  0.05303299  0.54799605    -0.80540
O698        O  0.30980020  0.95784634  0.61027061    -0.80450
O699        O  0.28000672  0.04661743  0.65587055    -0.80440
O700        O  0.30781341  0.95530497  0.53038742    -0.80480
C701        C  0.29916312  0.92197513  0.53709749     1.09250
C702        C  0.30986966  0.06007478  0.64914852     1.09140
C703        C  0.32528742  0.05503950  0.51572007     1.09270
C704        C  0.30053183  0.95691730  0.64223908     1.09150
O705        O  0.23952805  0.93779471  0.60484709    -0.80440
O706        O  0.26513211  0.08226887  0.54073905    -0.80520
O707        O  0.26425755  0.98551703  0.48696763    -0.80450
O708        O  0.21556447  0.05475552  0.61657308    -0.80430
O709        O  0.25951531  0.09151288  0.61022745    -0.80480
O710        O  0.23457112  0.95969253  0.52962580    -0.80450
O711        O  0.20745072  0.98183124  0.61967237    -0.80410
O712        O  0.23339711  0.03662419  0.52374662    -0.80480
Co713      Co  0.27267936  0.96282616  0.57287748     1.51530
Co714      Co  0.29466027  0.06581332  0.58004897     1.51690
Co715      Co  0.27134715  0.00026689  0.53184596     1.51570
Co716      Co  0.24577717  0.01475651  0.63207597     1.51470
O717        O  0.27126567  0.01542975  0.58329237    -1.42370
C718        C  0.21604471  0.94968031  0.62458871     1.09180
C719        C  0.24114632  0.06921575  0.52148122     1.09270
C720        C  0.24137146  0.96376702  0.49578628     1.09200
C721        C  0.22927369  0.08457622  0.62254680     1.09180
O722        O  0.97713944  0.21175466  0.54181776    -0.80440
O723        O  0.04651177  0.22027280  0.62212529    -0.80460
O724        O  0.04886731  0.25869688  0.50598298    -0.80470
O725        O  0.98396542  0.26371638  0.65076655    -0.80410
O726        O  0.05881001  0.21863442  0.54784331    -0.80540
O727        O  0.96988520  0.21796689  0.61666974    -0.80450
O728        O  0.02399709  0.26080711  0.65659063    -0.80440
O729        O  0.98079360  0.25255417  0.50047976    -0.80480
C730        C  0.97207313  0.22126367  0.51004769     1.09250
C731        C  0.04309287  0.23265137  0.65285451     1.09140
C732        C  0.06209121  0.22951245  0.51606419     1.09270
C733        C  0.96606530  0.23475316  0.64537128     1.09150
O734        O  0.92989993  0.27980644  0.60512482    -0.80440
O735        O  0.08739128  0.28742419  0.55361786    -0.80520
O736        O  0.97094994  0.32317320  0.53159121    -0.80450
O737        O  0.03333075  0.32606697  0.65424119    -0.80430
O738        O  0.07333372  0.29315178  0.62515345    -0.80480
O739        O  0.93567939  0.27723838  0.53776476    -0.80450
O740        O  0.96337164  0.31951369  0.63124141    -0.80410
O741        O  0.04830946  0.32686461  0.53475005    -0.80480
Co742      Co  0.95785240  0.24704381  0.57525268     1.51530
Co743      Co  0.06101676  0.25527231  0.58612530     1.51690
Co744      Co  0.01154287  0.29015161  0.52290809     1.51570
Co745      Co  0.01144266  0.29890551  0.61809933     1.51470
O746        O  0.00757229  0.27069323  0.57469975    -1.42370
C747        C  0.93301343  0.30572106  0.62557604     1.09180
C748        C  0.08040724  0.31549551  0.53629964     1.09270
C749        C  0.94077789  0.30895837  0.52773719     1.09200
C750        C  0.06543046  0.31654298  0.64910766     1.09180
C751        C  0.22527743  0.22460248  0.38086533     0.02830
C752        C  0.23397846  0.18797525  0.38733601    -0.13320
C753        C  0.21248884  0.16650775  0.40901633     0.00330
C754        C  0.17971669  0.17859669  0.41930250    -0.11850
C755        C  0.17047633  0.21377305  0.41495592     0.02820
C756        C  0.19054931  0.23538423  0.39190757    -0.11270
H757        H  0.25837347  0.17644123  0.37798613     0.08410
H758        H  0.16398852  0.16208823  0.43687318     0.05940
H759        H  0.17947974  0.26056097  0.38383188     0.05790
C760        C  0.18972605  0.33283876  0.73634605     0.02830
C761        C  0.19167156  0.36770964  0.74708142    -0.13320
C762        C  0.19467112  0.37434368  0.78272211     0.00330
C763        C  0.21040429  0.34766233  0.80493085    -0.11850
C764        C  0.21753022  0.31208448  0.79234623     0.02820
C765        C  0.20779968  0.30630487  0.75642035    -0.11270
H766        H  0.17906549  0.38792846  0.73041229     0.08410
H767        H  0.21580527  0.35489842  0.83184188     0.05940
H768        H  0.21280800  0.28126196  0.74404894     0.05790
C769        C  0.21605602  0.22357994  0.78217462     0.02830
C770        C  0.22447514  0.18969736  0.76802607    -0.13320
C771        C  0.20201166  0.17241732  0.74347709     0.00330
C772        C  0.16718161  0.18231132  0.74110053    -0.11850
C773        C  0.15625025  0.21477852  0.75353255     0.02820
C774        C  0.17969172  0.23455257  0.77595581    -0.11270
H775        H  0.24837786  0.17697753  0.77603885     0.08410
H776        H  0.14990737  0.16782216  0.72319093     0.05940
H777        H  0.17005706  0.25844057  0.78776354     0.05790
C778        C  0.70607641  0.21624801  0.30041353     0.02830
C779        C  0.70454676  0.17811719  0.30350568    -0.13320
C780        C  0.67734615  0.16009795  0.28471201     0.00330
C781        C  0.65098828  0.18090846  0.26923917    -0.11850
C782        C  0.65883707  0.21479315  0.25794957     0.02820
C783        C  0.68943782  0.23090457  0.27036302    -0.11270
H784        H  0.72178612  0.16361962  0.32160573     0.08410
H785        H  0.62665458  0.16867526  0.26014700     0.05940
H786        H  0.69778076  0.25571126  0.25869427     0.05790
C787        C  0.20705108  0.72501425  0.27703697     0.02830
C788        C  0.17112266  0.72517308  0.28727781    -0.13320
C789        C  0.14454049  0.71305036  0.26456965     0.00330
C790        C  0.15161355  0.70975696  0.22890034    -0.11850
C791        C  0.18602300  0.70095017  0.21944297     0.02820
C792        C  0.21404134  0.71256256  0.24200700    -0.11270
H793        H  0.16365764  0.73027938  0.31410153     0.08410
H794        H  0.13013271  0.70152106  0.21166826     0.05940
H795        H  0.24070961  0.71005532  0.23261719     0.05790
C796        C  0.31654832  0.36746024  0.25000418     0.02830
C797        C  0.33770800  0.34903679  0.22698971    -0.13320
C798        C  0.35199865  0.31638597  0.23569339     0.00330
C799        C  0.33980677  0.29839905  0.26598120    -0.11850
C800        C  0.30740807  0.30970781  0.28167699     0.02820
C801        C  0.29860625  0.34702273  0.27626589    -0.11270
H802        H  0.34697700  0.36230076  0.20338229     0.08410
H803        H  0.35331891  0.27432390  0.27454341     0.05940
H804        H  0.27803433  0.35964960  0.29152671     0.05790
C805        C  0.33468881  0.18777317  0.43062251     0.02830
C806        C  0.30849274  0.20704447  0.41012838    -0.13320
C807        C  0.31481671  0.21997275  0.37483314     0.00330
C808        C  0.35010350  0.21473068  0.36289951    -0.11850
C809        C  0.37531195  0.19551121  0.38330589     0.02820
C810        C  0.36907364  0.18803058  0.41854704    -0.11270
H811        H  0.28349344  0.21181247  0.42161398     0.08410
H812        H  0.35761055  0.22242497  0.33655995     0.05940
H813        H  0.38893112  0.17258762  0.43309796     0.05790
C814        C  0.22499733  0.31464434  0.37793933     0.02830
C815        C  0.21985397  0.35096562  0.36730322    -0.13320
C816        C  0.20066348  0.37558970  0.38813908     0.00330
C817        C  0.19317387  0.36701231  0.42277175    -0.11850
C818        C  0.19420299  0.33186986  0.43370820     0.02820
C819        C  0.21417247  0.30690710  0.41348930    -0.11270
H820        H  0.22819715  0.35984882  0.34167234     0.08410
H821        H  0.17750857  0.38574433  0.43800088     0.05940
H822        H  0.22035274  0.28161412  0.42529025     0.05790
C823        C  0.28368200  0.28370083  0.30315483     0.01980
C824        C  0.24982406  0.29585032  0.31570806     0.01980
C825        C  0.24031745  0.28602906  0.35165525     0.01980
C826        C  0.25202719  0.25068691  0.36340843     0.01980
C827        C  0.28576737  0.23725869  0.34978621     0.01980
C828        C  0.29490094  0.24802745  0.31385688     0.01980
C829        C  0.09449402  0.31295389  0.70779278    -0.20610
C830        C  0.09407523  0.32704251  0.67360843    -0.07170
C831        C  0.12410450  0.34484510  0.66139209     0.13690
C832        C  0.15621331  0.34225217  0.68035899    -0.20660
C833        C  0.15779295  0.32595160  0.71394278    -0.07180
C834        C  0.12519822  0.31434214  0.72895348     0.13680
C835        C  0.12067688  0.30575318  0.76751620    -0.24010
H836        H  0.07071089  0.30081865  0.71810933     0.14970
H837        H  0.17945558  0.35562985  0.67036994     0.15000
C838        C  0.12032725  0.37059521  0.63125828    -0.23960
H839        H  0.11203132  0.27829084  0.77219377     0.05210
H840        H  0.09931657  0.32214474  0.77838553     0.08440
H841        H  0.14461436  0.31057879  0.78329988     0.08440
H842        H  0.10667188  0.35768358  0.60893002     0.08420
H843        H  0.14638676  0.38123042  0.62308182     0.08420
H844        H  0.10347277  0.39336037  0.63954524     0.05200
C845        C  0.10272989  0.31780322  0.47496314    -0.20610
C846        C  0.10863865  0.32625631  0.51037627    -0.07170
C847        C  0.14418351  0.33379579  0.52052205     0.13690
C848        C  0.17185036  0.33356792  0.49554481    -0.20660
C849        C  0.16623439  0.32306009  0.46058588    -0.07180
C850        C  0.13056874  0.31586471  0.45038462     0.13680
C851        C  0.11997714  0.30782269  0.41329142    -0.24010
H852        H  0.07612695  0.31104605  0.46648077     0.14970
H853        H  0.19826837  0.34159559  0.50338944     0.15000
C854        C  0.15315923  0.34388444  0.55740081    -0.23960
H855        H  0.10475528  0.28283904  0.41211378     0.05210
H856        H  0.14279418  0.30531673  0.39560475     0.08440
H857        H  0.10225586  0.32950958  0.40412340     0.08440
H858        H  0.14483345  0.32260885  0.57596404     0.08420
H859        H  0.13967857  0.36959636  0.56255318     0.08420
H860        H  0.18203931  0.34794017  0.56132792     0.05200
C861        C  0.10413615  0.23275748  0.67107660    -0.20610
C862        C  0.06982434  0.22427309  0.68063247    -0.07170
C863        C  0.06291836  0.21712416  0.71665011     0.13690
C864        C  0.09089440  0.21847876  0.74175504    -0.20660
C865        C  0.12543673  0.22836621  0.73203582    -0.07180
C866        C  0.13107008  0.23652547  0.69588996     0.13680
C867        C  0.16586009  0.24713123  0.68125069    -0.24010
H868        H  0.10991916  0.23845528  0.64363522     0.14970
H869        H  0.08618715  0.20989332  0.76863486     0.15000
C870        C  0.02741364  0.20496034  0.72886139    -0.23960
H871        H  0.16308780  0.27214074  0.66574420     0.05210
H872        H  0.17374343  0.22600532  0.66284628     0.08440
H873        H  0.18571251  0.25134632  0.70204792     0.08440
H874        H  0.00901003  0.20106022  0.70637766     0.08420
H875        H  0.01644152  0.22466585  0.74756995     0.08420
H876        H  0.03025170  0.17887161  0.74265818     0.05200
C877        C  0.12353131  0.22498373  0.50125328    -0.20610
C878        C  0.08921723  0.21604797  0.49189325    -0.07170
C879        C  0.08139576  0.21134948  0.45571443     0.13690
C880        C  0.10773811  0.21515317  0.43013622    -0.20660
C881        C  0.14205269  0.22539385  0.43931325    -0.07180
C882        C  0.14940561  0.23097156  0.47581224     0.13680
C883        C  0.18384142  0.24347881  0.49020529    -0.24010
H884        H  0.12948584  0.23075806  0.52866184     0.14970
H885        H  0.10198854  0.20854998  0.40292758     0.15000
C886        C  0.04564875  0.19993197  0.44425352    -0.23960
H887        H  0.20299559  0.24967088  0.46957092     0.05210
H888        H  0.17968798  0.26761577  0.50595679     0.08440
H889        H  0.19343594  0.22346617  0.50943228     0.08440
H890        H  0.02518217  0.21921763  0.45294023     0.08420
H891        H  0.04161244  0.17330438  0.45615383     0.08420
H892        H  0.04356224  0.19753616  0.41515594     0.05200
C893        C  0.23807216  0.12837458  0.49593438    -0.20610
C894        C  0.22793264  0.09281484  0.49280402    -0.07170
C895        C  0.21395462  0.08109043  0.46016767     0.13690
C896        C  0.21378318  0.10466842  0.43105055    -0.20660
C897        C  0.22639470  0.13969133  0.43404750    -0.07180
C898        C  0.23820282  0.15152775  0.46753755     0.13680
C899        C  0.24894171  0.18908848  0.47578202    -0.24010
H900        H  0.24728420  0.13839764  0.52111568     0.14970
H901        H  0.20184893  0.09652856  0.40634978     0.15000
C902        C  0.19845393  0.04460623  0.45577284    -0.23960
H903        H  0.24000049  0.19640640  0.50227772     0.05210
H904        H  0.23906682  0.20844112  0.45617276     0.08440
H905        H  0.27771712  0.19151800  0.47851236     0.08440
H906        H  0.17777838  0.04002386  0.47589934     0.08420
H907        H  0.21944415  0.02417035  0.45831649     0.08420
H908        H  0.18603506  0.04139079  0.42937041     0.05200
C909        C  0.22893422  0.14270967  0.65200836    -0.20610
C910        C  0.21729852  0.10730086  0.65202110    -0.07170
C911        C  0.20266861  0.09296254  0.68336338     0.13690
C912        C  0.20057900  0.11433786  0.71347620    -0.20660
C913        C  0.21320539  0.14947299  0.71372382    -0.07180
C914        C  0.22676894  0.16408089  0.68192238     0.13680
C915        C  0.23892956  0.20208439  0.67779321    -0.24010
H916        H  0.24061895  0.15377501  0.62834018     0.14970
H917        H  0.18854727  0.10377419  0.73716764     0.15000
C918        C  0.19015554  0.05498546  0.68603180    -0.23960
H919        H  0.22728543  0.21430438  0.65370029     0.05210
H920        H  0.26761248  0.20363307  0.67335187     0.08440
H921        H  0.23259668  0.21839800  0.70080529     0.08440
H922        H  0.21264356  0.03634225  0.68182850     0.08420
H923        H  0.16897851  0.05027260  0.66618194     0.08420
H924        H  0.17909081  0.04880831  0.71239042     0.05200
C925        C  0.31210520  0.12619212  0.44213051    -0.20610
C926        C  0.32758937  0.15688318  0.45599365    -0.07170
C927        C  0.34367931  0.15351168  0.48995854     0.13690
C928        C  0.34375075  0.12023808  0.50838912    -0.20660
C929        C  0.32976780  0.08891542  0.49341584    -0.07180
C930        C  0.31473744  0.09241246  0.45881082     0.13680
C931        C  0.30225635  0.06070224  0.43797293    -0.24010
H932        H  0.29850079  0.12838020  0.41706755     0.14970
H933        H  0.35480739  0.11893991  0.53480510     0.15000
C934        C  0.36032699  0.18490901  0.50783501    -0.23960
H935        H  0.29466926  0.06811261  0.41052605     0.05210
H936        H  0.27849419  0.04887746  0.44994113     0.08440
H937        H  0.32380113  0.04044719  0.43659369     0.08440
H938        H  0.35775704  0.20977561  0.49198024     0.08420
H939        H  0.34717004  0.18949045  0.53347667     0.08420
H940        H  0.38890611  0.17935840  0.51263899     0.05200
C941        C  0.30500090  0.09243333  0.70376444    -0.20610
C942        C  0.31778905  0.09238197  0.66939566    -0.07170
C943        C  0.32557632  0.12535326  0.65280608     0.13690
C944        C  0.31941732  0.15719304  0.67102924    -0.20660
C945        C  0.30589846  0.15736439  0.70554990    -0.07180
C946        C  0.29774136  0.12392241  0.72151159     0.13680
C947        C  0.28276667  0.11989775  0.75787698    -0.24010
H948        H  0.29828656  0.06718759  0.71608807     0.14970
H949        H  0.32781308  0.18220934  0.65941565     0.15000
C950        C  0.34062568  0.12756232  0.61618081    -0.23960
H951        H  0.25409400  0.12322248  0.75778568     0.05210
H952        H  0.29462208  0.13887945  0.77622363     0.08440
H953        H  0.28564063  0.09237420  0.76810065     0.08440
H954        H  0.32134938  0.11757122  0.59655700     0.08420
H955        H  0.36553829  0.11170731  0.61495287     0.08420
H956        H  0.34688184  0.15542077  0.60848256     0.05200
C957        C  0.87461597  0.22244613  0.68216170    -0.20610
C958        C  0.88023703  0.22629486  0.71878369    -0.07170
C959        C  0.91515335  0.23089530  0.73114321     0.13690
C960        C  0.94249610  0.23486241  0.70654127    -0.20660
C961        C  0.93754417  0.22630911  0.67074575    -0.07180
C962        C  0.90292987  0.21820635  0.65890179     0.13680
C963        C  0.89527163  0.20392850  0.62251552    -0.24010
H964        H  0.84787923  0.21814827  0.67246996     0.14970
H965        H  0.96796609  0.24400991  0.71553516     0.15000
C966        C  0.92413807  0.22887204  0.76988759    -0.23960
H967        H  0.86676203  0.19768071  0.61888395     0.05210
H968        H  0.91050241  0.17884601  0.61868119     0.08440
H969        H  0.90227473  0.22313486  0.60159921     0.08440
H970        H  0.91672857  0.20228696  0.78042995     0.08420
H971        H  0.90964742  0.24956160  0.78472644     0.08420
H972        H  0.95292911  0.23250149  0.77473791     0.05200
C973        C  0.91957171  0.20139145  0.42944716    -0.20610
C974        C  0.88673320  0.21553136  0.43983607    -0.07170
C975        C  0.88208569  0.22231382  0.47637094     0.13690
C976        C  0.90964167  0.21624224  0.50029959    -0.20660
C977        C  0.94293178  0.20539877  0.48937415    -0.07180
C978        C  0.94647060  0.19384279  0.45435589     0.13680
C979        C  0.97150844  0.16415773  0.44595307    -0.24010
H980        H  0.92201810  0.19072718  0.40308867     0.14970
H981        H  0.90545558  0.22196349  0.52791625     0.15000
C982        C  0.84817030  0.23433960  0.49239834    -0.23960
H983        H  0.95604067  0.13993039  0.43965771     0.05210
H984        H  0.98838822  0.15719153  0.46908145     0.08440
H985        H  0.98708303  0.17097448  0.42230108     0.08440
H986        H  0.83962522  0.21331625  0.51084421     0.08420
H987        H  0.82785029  0.24079178  0.47243281     0.08420
H988        H  0.85272082  0.25832920  0.50856114     0.05200
C989        C  0.84676870  0.10631511  0.72845801    -0.20610
C990        C  0.81674742  0.12129512  0.74614336    -0.07170
C991        C  0.78518295  0.10203581  0.74388412     0.13690
C992        C  0.78258932  0.07436579  0.71920825    -0.20660
C993        C  0.81000017  0.06604719  0.69468596    -0.07180
C994        C  0.84311289  0.08168282  0.70059439     0.13680
C995        C  0.87402893  0.07370532  0.67713487    -0.24010
H996        H  0.87257701  0.11811087  0.73264373     0.14970
H997        H  0.75729161  0.06109391  0.71762268     0.15000
C998        C  0.75393076  0.11038346  0.76669878    -0.23960
H999        H  0.89823069  0.08796059  0.68576198     0.05210
H1000       H  0.86775125  0.08239392  0.64973661     0.08440
H1001       H  0.87982752  0.04465435  0.67759045     0.08440
H1002       H  0.74374375  0.13750823  0.76089580     0.08420
H1003       H  0.76174010  0.10799308  0.79488326     0.08420
H1004       H  0.73198280  0.09158435  0.76201635     0.05200
C1005       C  0.79546544  0.12470553  0.50907485    -0.20610
C1006       C  0.81289728  0.09190561  0.50773195    -0.07170
C1007       C  0.82403118  0.07858138  0.47494690     0.13690
C1008       C  0.81654883  0.09826939  0.44413020    -0.20660
C1009       C  0.80116085  0.13245139  0.44575224    -0.07180
C1010       C  0.79049355  0.14570041  0.47913228     0.13680
C1011       C  0.77813383  0.18333972  0.48563371    -0.24010
H1012       H  0.78553781  0.13429415  0.53406519     0.14970
H1013       H  0.82682902  0.08907153  0.41918351     0.15000
C1014       C  0.84649962  0.04541141  0.47276865    -0.23960
H1015       H  0.78793614  0.19291190  0.51135765     0.05210
H1016       H  0.74936183  0.18478991  0.48852789     0.08440
H1017       H  0.78651599  0.20199959  0.46494164     0.08440
H1018       H  0.83214375  0.02234622  0.48322897     0.08420
H1019       H  0.87113850  0.04892593  0.48849461     0.08420
H1020       H  0.85402459  0.03939200  0.44521326     0.05200
C1021       C  0.69013674  0.13721140  0.70670041    -0.20610
C1022       C  0.70911446  0.16904960  0.70094895    -0.07170
C1023       C  0.72986506  0.17172048  0.67056056     0.13690
C1024       C  0.73177278  0.14232607  0.64786477    -0.20660
C1025       C  0.71355812  0.10988490  0.65461591    -0.07180
C1026       C  0.69182754  0.10792977  0.68428123     0.13680
C1027       C  0.67122246  0.07489705  0.69336507    -0.24010
H1028       H  0.67368973  0.13493109  0.72926317     0.14970
H1029       H  0.74882039  0.14457355  0.62513125     0.15000
C1030       C  0.74996061  0.20492135  0.66112019    -0.23960
H1031       H  0.65401295  0.07892113  0.71651697     0.05210
H1032       H  0.68968010  0.05246158  0.69952748     0.08440
H1033       H  0.65362390  0.06781517  0.67096480     0.08440
H1034       H  0.74612370  0.22665146  0.68033443     0.08420
H1035       H  0.74091606  0.21490574  0.63489846     0.08420
H1036       H  0.77872405  0.19861787  0.65995779     0.05200
C1037       C  0.83880923  0.30453293  0.66333162    -0.20610
C1038       C  0.84576087  0.30881709  0.69915299    -0.07170
C1039       C  0.88160857  0.31411452  0.71010496     0.13690
C1040       C  0.90865230  0.31648614  0.68495009    -0.20660
C1041       C  0.90179628  0.31267225  0.64887787    -0.07180
C1042       C  0.86604745  0.30600870  0.63821736     0.13680
C1043       C  0.85516190  0.30389229  0.60022904    -0.24010
H1044       H  0.81146841  0.30202755  0.65476861     0.14970
H1045       H  0.93575376  0.31991038  0.69395099     0.15000
C1046       C  0.89254012  0.31943017  0.74795339    -0.23960
H1047       H  0.82648973  0.29821266  0.59694609     0.05210
H1048       H  0.86968726  0.28286177  0.58591659     0.08440
H1049       H  0.85963682  0.33036896  0.58875355     0.08440
H1050       H  0.87116581  0.31381523  0.76676482     0.08420
H1051       H  0.90177788  0.34707853  0.75167482     0.08420
H1052       H  0.91517814  0.30166640  0.75460489     0.05200
C1053       C  0.64771461  0.14561615  0.78716555    -0.20610
C1054       C  0.63187476  0.17771604  0.77543185    -0.07170
C1055       C  0.59666700  0.17703934  0.76269790     0.13690
C1056       C  0.57802627  0.14471919  0.76317536    -0.20660
C1057       C  0.59406738  0.11251356  0.77427449    -0.07180
C1058       C  0.63006722  0.11300287  0.78468830     0.13680
C1059       C  0.65119218  0.07950200  0.79213759    -0.24010
H1060       H  0.67547660  0.14533195  0.79471505     0.14970
H1061       H  0.55081955  0.14506679  0.75508430     0.15000
C1062       C  0.57838902  0.21064885  0.74995367    -0.23960
H1063       H  0.67519884  0.07930148  0.77567110     0.05210
H1064       H  0.63660337  0.05497563  0.78559202     0.08440
H1065       H  0.65966968  0.07852394  0.82005489     0.08440
H1066       H  0.59215497  0.22183826  0.72672218     0.08420
H1067       H  0.57847479  0.23064055  0.77134529     0.08420
H1068       H  0.55043525  0.20570619  0.74215820     0.05200
C1069       C  0.42126232  0.14892138  0.76221611    -0.20610
C1070       C  0.38830147  0.14555540  0.77943273    -0.07170
C1071       C  0.38022186  0.11062323  0.79246885     0.13690
C1072       C  0.40449314  0.08203388  0.78872289    -0.20660
C1073       C  0.43765379  0.08630271  0.77319234    -0.07180
C1074       C  0.44564996  0.12034691  0.75932529     0.13680
C1075       C  0.48015108  0.12652429  0.74126186    -0.24010
H1076       H  0.42778811  0.17442962  0.75042339     0.14970
H1077       H  0.39836244  0.05644619  0.80065344     0.15000
C1078       C  0.34698185  0.10116212  0.81122945    -0.23960
H1079       H  0.48277079  0.15441540  0.73164120     0.05210
H1080       H  0.48274749  0.10827653  0.71855733     0.08440
H1081       H  0.50156769  0.12095392  0.76034184     0.08440
H1082       H  0.33057515  0.12454943  0.81698006     0.08420
H1083       H  0.35328306  0.08772125  0.83648845     0.08420
H1084       H  0.33280374  0.08093941  0.79578275     0.05200
C1085       C  0.67322051  0.09827931  0.88848131    -0.20610
C1086       C  0.66168656  0.13191531  0.87618635    -0.07170
C1087       C  0.62481662  0.13715905  0.87022685     0.13690
C1088       C  0.60106731  0.10993771  0.87731388    -0.20660
C1089       C  0.61274677  0.07573819  0.88579243    -0.07180
C1090       C  0.64915013  0.07008568  0.89284594     0.13680
C1091       C  0.66206316  0.03456049  0.90600916    -0.24010
H1092       H  0.70073876  0.09458580  0.89616719     0.14970
H1093       H  0.57306185  0.11475056  0.87250360     0.15000
C1094       C  0.60862840  0.17146478  0.85745689    -0.23960
H1095       H  0.69122423  0.03400339  0.91018533     0.05210
H1096       H  0.65511874  0.01436231  0.88646117     0.08440
H1097       H  0.64898362  0.02794996  0.93129277     0.08440
H1098       H  0.62799623  0.19314598  0.85398784     0.08420
H1099       H  0.59444844  0.16697342  0.83242667     0.08420
H1100       H  0.58765306  0.17889751  0.87576163     0.05200
C1101       C  0.43963478  0.13120627  0.85945226    -0.20610
C1102       C  0.44112486  0.09828704  0.87654613    -0.07170
C1103       C  0.41096465  0.08606351  0.89442027     0.13690
C1104       C  0.38000937  0.10731308  0.89454735    -0.20660
C1105       C  0.37817166  0.14112092  0.87774301    -0.07180
C1106       C  0.40980754  0.15339640  0.86060470     0.13680
C1107       C  0.41624953  0.18966873  0.84445300    -0.24010
H1108       H  0.46260845  0.14005669  0.84481950     0.14970
H1109       H  0.35731346  0.09820876  0.90934610     0.15000
C1110       C  0.41196217  0.05167294  0.91498258    -0.23960
H1111       H  0.44192673  0.20040909  0.85375982     0.05210
H1112       H  0.39557184  0.20889488  0.84958259     0.08440
H1113       H  0.42013858  0.18885963  0.81598216     0.08440
H1114       H  0.43330277  0.05264560  0.93525453     0.08420
H1115       H  0.41720855  0.02928364  0.89712004     0.08420
H1116       H  0.38648006  0.04650474  0.92844250     0.05200
C1117       C  0.66210700  0.20341965  0.99287318    -0.20610
C1118       C  0.65359648  0.21812249  0.95952040    -0.07170
C1119       C  0.61706218  0.22524913  0.95222309     0.13690
C1120       C  0.59141828  0.21985618  0.97818739    -0.20660
C1121       C  0.60025694  0.20686248  0.01162939    -0.07180
C1122       C  0.63572654  0.19668878  0.01816382     0.13680
C1123       C  0.64475874  0.17622607  0.05103095    -0.24010
H1124       H  0.68895957  0.19411737  0.99791415     0.14970
H1125       H  0.56421711  0.22779545  0.97270146     0.15000
C1126       C  0.60303655  0.23761150  0.91713989    -0.23960
H1127       H  0.67382886  0.17448324  0.05562949     0.05210
H1128       H  0.63401399  0.14887553  0.04894464     0.08440
H1129       H  0.63185135  0.18908404  0.07357401     0.08440
H1130       H  0.58114683  0.22027668  0.90915588     0.08420
H1131       H  0.62352614  0.23936293  0.89659030     0.08420
H1132       H  0.58965584  0.26342218  0.91994417     0.05200
C1133       C  0.43050416  0.23309380  0.96808364    -0.20610
C1134       C  0.43117113  0.21892366  0.00166816    -0.07170
C1135       C  0.39987514  0.20414866  0.01565135     0.13690
C1136       C  0.36793531  0.20666050  0.99583297    -0.20660
C1137       C  0.36758537  0.22085111  0.96122996    -0.07180
C1138       C  0.40048751  0.23238755  0.94751088     0.13680
C1139       C  0.40790759  0.23809909  0.90980514    -0.24010
H1140       H  0.45434833  0.24421886  0.95668226     0.14970
H1141       H  0.34423452  0.19404511  0.00569452     0.15000
C1142       C  0.40084080  0.18318176  0.04949391    -0.23960
H1143       H  0.42077779  0.26373479  0.90412548     0.05210
H1144       H  0.38405356  0.23591526  0.89408995     0.08440
H1145       H  0.42723751  0.21717931  0.90342390     0.08440
H1146       H  0.41118875  0.19970654  0.07099996     0.08420
H1147       H  0.41865184  0.15972638  0.04654496     0.08420
H1148       H  0.37413818  0.17357911  0.05689247     0.05200
C1149       C  0.41601110  0.31358611  0.22899677    -0.20610
C1150       C  0.38290869  0.30694502  0.21398936    -0.07170
C1151       C  0.37948538  0.30787971  0.17666744     0.13690
C1152       C  0.40842045  0.31725634  0.15578993    -0.20660
C1153       C  0.44196810  0.32280263  0.17062939    -0.07180
C1154       C  0.44536231  0.32136016  0.20796150     0.13680
C1155       C  0.48001124  0.32829968  0.22595154    -0.24010
H1156       H  0.41839439  0.31489359  0.25744864     0.14970
H1157       H  0.40526222  0.31716908  0.12736953     0.15000
C1158       C  0.34468920  0.30179515  0.15819718    -0.23960
H1159       H  0.47756376  0.32854660  0.25509041     0.05210
H1160       H  0.48958947  0.35485763  0.21742156     0.08440
H1161       H  0.49921892  0.30693085  0.21944671     0.08440
H1162       H  0.33656310  0.32678754  0.14488209     0.08420
H1163       H  0.32355833  0.29322989  0.17649242     0.08420
H1164       H  0.34780837  0.28130641  0.13762049     0.05200
C1165       C  0.39051753  0.21918581  0.21413543    -0.20610
C1166       C  0.35596544  0.21649533  0.20013308    -0.07170
C1167       C  0.35209365  0.21362361  0.16335135     0.13690
C1168       C  0.38223059  0.21612798  0.14162806    -0.20660
C1169       C  0.41706155  0.21742606  0.15560530    -0.07180
C1170       C  0.42089207  0.21811249  0.19273288     0.13680
C1171       C  0.45682343  0.21792301  0.21026885    -0.24010
H1172       H  0.39375673  0.22057297  0.24242283     0.14970
H1173       H  0.37811818  0.21812314  0.11355662     0.15000
C1174       C  0.31599154  0.20880971  0.14704217    -0.23960
H1175       H  0.45471424  0.21859543  0.23935432     0.05210
H1176       H  0.47202449  0.24158335  0.20261770     0.08440
H1177       H  0.47171501  0.19352667  0.20285102     0.08440
H1178       H  0.29840465  0.23133228  0.15448352     0.08420
H1179       H  0.30432912  0.18347491  0.15658625     0.08420
H1180       H  0.31724891  0.20786188  0.11784117     0.05200
C1181       C  0.58628911  0.21371822  0.19426070    -0.20610
C1182       C  0.60540637  0.21007262  0.16295423    -0.07170
C1183       C  0.64279034  0.21365915  0.16379310     0.13690
C1184       C  0.65967874  0.22159743  0.19539390    -0.20660
C1185       C  0.64031194  0.22589985  0.22612980    -0.07180
C1186       C  0.60305551  0.22428440  0.22511782     0.13680
C1187       C  0.58071446  0.23261327  0.25667642    -0.24010
H1188       H  0.55755423  0.21272688  0.19382050     0.14970
H1189       H  0.68840608  0.22165888  0.19673576     0.15000
C1190       C  0.66540604  0.20852511  0.13186877    -0.23960
H1191       H  0.56556453  0.20862887  0.26442070     0.05210
H1192       H  0.59699056  0.24158284  0.27936330     0.08440
H1193       H  0.56172049  0.25440762  0.24984860     0.08440
H1194       H  0.65792017  0.22784090  0.11079807     0.08420
H1195       H  0.66268648  0.18062130  0.12300679     0.08420
H1196       H  0.69394762  0.21272872  0.13773757     0.05200
C1197       C  0.57094271  0.32982590  0.95473536    -0.20610
C1198       C  0.58641749  0.31995315  0.98737727    -0.07170
C1199       C  0.62287434  0.31004988  0.98765556     0.13690
C1200       C  0.64181653  0.30858151  0.95586413    -0.20660
C1201       C  0.62668567  0.31905796  0.92339987    -0.07180
C1202       C  0.59087886  0.33090819  0.92324079     0.13680
C1203       C  0.57326042  0.34271586  0.88935664    -0.24010
H1204       H  0.54283826  0.33596556  0.95373195     0.14970
H1205       H  0.66951812  0.30076344  0.95670110     0.15000
C1206       C  0.64288318  0.29994836  0.02083591    -0.23960
H1207       H  0.54495987  0.34983783  0.89331485     0.05210
H1208       H  0.57459682  0.32079340  0.86993299     0.08440
H1209       H  0.58682041  0.36644552  0.87846046     0.08440
H1210       H  0.64896107  0.27106969  0.02088725     0.08420
H1211       H  0.62839578  0.30697084  0.04505093     0.08420
H1212       H  0.66859200  0.31394020  0.02177286     0.05200
C1213       C  0.67090574  0.10018913  0.31150716    -0.20610
C1214       C  0.67166383  0.12109911  0.28124453    -0.07170
C1215       C  0.65433373  0.10812254  0.25033798     0.13690
C1216       C  0.62698587  0.08333865  0.25390236    -0.20660
C1217       C  0.62161315  0.06642346  0.28621247    -0.07180
C1218       C  0.64800026  0.07102569  0.31341881     0.13680
C1219       C  0.65280103  0.04612692  0.34460686    -0.24010
H1220       H  0.68614707  0.10804917  0.33442624     0.14970
H1221       H  0.60983133  0.07755881  0.23166245     0.15000
C1222       C  0.66132554  0.12347622  0.21424694    -0.23960
H1223       H  0.67553810  0.05385129  0.36158858     0.05210
H1224       H  0.65820031  0.01870810  0.33513534     0.08440
H1225       H  0.62916093  0.04605675  0.36137074     0.08440
H1226       H  0.68338516  0.14286378  0.21477552     0.08420
H1227       H  0.66884692  0.10166569  0.19613949     0.08420
H1228       H  0.63711786  0.13699642  0.20372968     0.05200
C1229       C  0.39530697  0.14710442  0.27887074    -0.20610
C1230       C  0.36081209  0.13347994  0.27729560    -0.07170
C1231       C  0.35677642  0.09643006  0.27207071     0.13690
C1232       C  0.38709433  0.07398994  0.27095545    -0.20660
C1233       C  0.42171496  0.08785765  0.27186706    -0.07180
C1234       C  0.42548005  0.12537301  0.27467828     0.13680
C1235       C  0.46114202  0.14313634  0.27392447    -0.24010
H1236       H  0.39857708  0.17551817  0.28194754     0.14970
H1237       H  0.38375064  0.04547583  0.26896780     0.15000
C1238       C  0.32049096  0.08068119  0.26762624    -0.23960
H1239       H  0.45904534  0.17218809  0.27856506     0.05210
H1240       H  0.47362569  0.13892450  0.24790930     0.08440
H1241       H  0.47862677  0.13219234  0.29484189     0.08440
H1242       H  0.30730786  0.09233749  0.24389687     0.08420
H1243       H  0.30413717  0.08652552  0.29106304     0.08420
H1244       H  0.32182229  0.05130224  0.26440226     0.05200
C1245       C  0.40735989  0.10532892  0.35697315    -0.20610
C1246       C  0.44404335  0.10893240  0.35967518    -0.07170
C1247       C  0.45822990  0.14310695  0.36592794     0.13690
C1248       C  0.43512991  0.17258966  0.36920805    -0.20660
C1249       C  0.39828450  0.16837966  0.36721695    -0.07180
C1250       C  0.38447895  0.13379362  0.36162530     0.13680
C1251       C  0.34596286  0.12415542  0.36383270    -0.24010
H1252       H  0.39587665  0.07943900  0.35177057     0.14970
H1253       H  0.44567429  0.19854318  0.37562966     0.15000
C1254       C  0.49709599  0.14859212  0.37049342    -0.23960
H1255       H  0.33650470  0.11267880  0.33887402     0.05210
H1256       H  0.32857295  0.14670385  0.37023892     0.08440
H1257       H  0.34306587  0.10315073  0.38423041     0.08440
H1258       H  0.50963967  0.14389615  0.34492399     0.08420
H1259       H  0.50782787  0.13005063  0.39095361     0.08420
H1260       H  0.50339022  0.17627249  0.37841460     0.05200
C1261       C  0.68943551  0.15155157  0.50282811    -0.20610
C1262       C  0.69864292  0.14866964  0.46717197    -0.07170
C1263       C  0.70756453  0.11429085  0.45420636     0.13690
C1264       C  0.70970124  0.08495127  0.47751458    -0.20660
C1265       C  0.70328783  0.08851138  0.51363579    -0.07180
C1266       C  0.69228374  0.12224743  0.52620938     0.13680
C1267       C  0.68342135  0.12748800  0.56431342    -0.24010
H1268       H  0.68029639  0.17710676  0.51245710     0.14970
H1269       H  0.71872621  0.05939504  0.46774177     0.15000
C1270       C  0.71453663  0.10774993  0.41576594    -0.23960
H1271       H  0.67280033  0.15465847  0.56929108     0.05210
H1272       H  0.70768259  0.12407727  0.58041181     0.08440
H1273       H  0.66326484  0.10782465  0.57264752     0.08440
H1274       H  0.73919445  0.12084792  0.40804740     0.08420
H1275       H  0.69251297  0.11794531  0.39905305     0.08420
H1276       H  0.71788456  0.07892756  0.41014378     0.05200
C1277       C  0.61952301  0.11862077  0.40851966    -0.20610
C1278       C  0.62075435  0.14998350  0.38711963    -0.07170
C1279       C  0.59620136  0.15248726  0.35906419     0.13690
C1280       C  0.57535571  0.12262259  0.35069265    -0.20660
C1281       C  0.57298409  0.09231239  0.37313144    -0.07180
C1282       C  0.59507965  0.09114322  0.40320801     0.13680
C1283       C  0.59406002  0.06086659  0.42961818    -0.24010
H1284       H  0.63773632  0.11524252  0.43038027     0.14970
H1285       H  0.56039452  0.12344618  0.32625438     0.15000
C1286       C  0.58893893  0.18714517  0.34012224    -0.23960
H1287       H  0.61192113  0.06555759  0.45249953     0.05210
H1288       H  0.60276246  0.03557158  0.41738655     0.08440
H1289       H  0.56675262  0.05802880  0.43984891     0.08440
H1290       H  0.61140565  0.19480285  0.32358617     0.08420
H1291       H  0.58361629  0.20844324  0.35954350     0.08420
H1292       H  0.56525755  0.18523670  0.32273250     0.05200
C1293       C  0.64424770  0.31022507  0.22122866    -0.20610
C1294       C  0.62661688  0.31878939  0.25254544    -0.07170
C1295       C  0.59117537  0.33067432  0.25017593     0.13690
C1296       C  0.57411021  0.33214092  0.21700551    -0.20660
C1297       C  0.59142652  0.32257567  0.18586705    -0.07180
C1298       C  0.62765377  0.31336174  0.18809457     0.13680
C1299       C  0.64943192  0.30812649  0.15557088    -0.24010
H1300       H  0.67190980  0.30265882  0.22262403     0.14970
H1301       H  0.54704088  0.34063781  0.21519907     0.15000
C1302       C  0.57141135  0.34136741  0.28271004    -0.23960
H1303       H  0.67710692  0.30056056  0.16225263     0.05210
H1304       H  0.64907305  0.33299658  0.13959425     0.08440
H1305       H  0.63918203  0.28658535  0.13936197     0.08440
H1306       H  0.58467125  0.36427004  0.29541745     0.08420
H1307       H  0.57091721  0.31855497  0.30152996     0.08420
H1308       H  0.54363647  0.34930968  0.27647719     0.05200
C1309       C  0.64733061  0.87300255  0.27126458    -0.20610
C1310       C  0.67808443  0.89254494  0.26440641    -0.07170
C1311       C  0.67486179  0.92919565  0.25609297     0.13690
C1312       C  0.64125811  0.94580625  0.25766523    -0.20660
C1313       C  0.61063653  0.92605852  0.26526304    -0.07180
C1314       C  0.61378000  0.88892021  0.27055463     0.13680
C1315       C  0.58196189  0.86591124  0.27681305    -0.24010
H1316       H  0.64963427  0.84470489  0.27648799     0.14970
H1317       H  0.63912719  0.97453683  0.25496360     0.15000
C1318       C  0.70702497  0.95080379  0.24732587    -0.23960
H1319       H  0.58944502  0.83742426  0.27942775     0.05210
H1320       H  0.56279549  0.86905040  0.25463774     0.08440
H1321       H  0.56921451  0.87300784  0.30167931     0.08440
H1322       H  0.71968790  0.94027429  0.22323112     0.08420
H1323       H  0.72628379  0.94925794  0.26958114     0.08420
H1324       H  0.70009172  0.97927024  0.24252578     0.05200
C1325       C  0.37740624  0.95824366  0.28356812    -0.20610
C1326       C  0.41237604  0.94599092  0.27712573    -0.07170
C1327       C  0.41697847  0.90870892  0.27222086     0.13690
C1328       C  0.38803689  0.88550556  0.27632850    -0.20660
C1329       C  0.35289239  0.89767678  0.28053873    -0.07180
C1330       C  0.34776406  0.93493169  0.28398895     0.13680
C1331       C  0.31140583  0.95076803  0.28845624    -0.24010
H1332       H  0.37294846  0.98636191  0.28799317     0.14970
H1333       H  0.39239950  0.85721398  0.27311467     0.15000
C1334       C  0.45183815  0.89254093  0.26107994    -0.23960
H1335       H  0.31039593  0.96560472  0.31361710     0.05210
H1336       H  0.29054215  0.93012610  0.28913108     0.08440
H1337       H  0.30549353  0.96947253  0.26631872     0.08440
H1338       H  0.47276854  0.89622177  0.28116337     0.08420
H1339       H  0.46015944  0.90457689  0.23568538     0.08420
H1340       H  0.44964827  0.86348062  0.25704349     0.05200
C1341       C  0.64335123  0.80358786  0.21250070    -0.20610
C1342       C  0.67291891  0.81501438  0.19335167    -0.07170
C1343       C  0.66751196  0.82571015  0.15796294     0.13690
C1344       C  0.63326733  0.82369029  0.14264346    -0.20660
C1345       C  0.60385307  0.81070598  0.16112658    -0.07180
C1346       C  0.60922678  0.80131968  0.19730204     0.13680
C1347       C  0.57932469  0.78957228  0.22087591    -0.24010
H1348       H  0.64674220  0.79711958  0.24008043     0.14970
H1349       H  0.62951805  0.83132289  0.11573873     0.15000
C1350       C  0.69832764  0.83835389  0.13624230    -0.23960
H1351       H  0.58826711  0.78575166  0.24856915     0.05210
H1352       H  0.56879299  0.76345194  0.21286011     0.08440
H1353       H  0.55774667  0.80985771  0.22030517     0.08440
H1354       H  0.71793746  0.81635365  0.13353901     0.08420
H1355       H  0.71155195  0.86138578  0.14852589     0.08420
H1356       H  0.68995650  0.84749638  0.10976040     0.05200
C1357       C  0.39966843  0.82586857  0.15579511    -0.20610
C1358       C  0.42914785  0.81432238  0.17613594    -0.07170
C1359       C  0.42326751  0.80307572  0.21138480     0.13690
C1360       C  0.38870090  0.80366768  0.22495553    -0.20660
C1361       C  0.35949129  0.81575524  0.20481589    -0.07180
C1362       C  0.36516419  0.82675414  0.16967038     0.13680
C1363       C  0.33466256  0.83922984  0.14674163    -0.24010
H1364       H  0.40337055  0.83330833  0.12843578     0.14970
H1365       H  0.38467339  0.79639849  0.25231414     0.15000
C1366       C  0.45330542  0.79144222  0.23545628    -0.23960
H1367       H  0.34341443  0.84597031  0.11964951     0.05210
H1368       H  0.32210926  0.86335586  0.15800674     0.08440
H1369       H  0.31462914  0.81781936  0.14487763     0.08440
H1370       H  0.47492915  0.81128980  0.23474053     0.08420
H1371       H  0.46387856  0.76526459  0.22737147     0.08420
H1372       H  0.44452964  0.78857628  0.26318869     0.05200
C1373       C  0.61037293  0.70090665  0.22053806    -0.20610
C1374       C  0.64491824  0.71466577  0.21943507    -0.07170
C1375       C  0.65869409  0.72295406  0.18551293     0.13690
C1376       C  0.63645237  0.72228740  0.15557891    -0.20660
C1377       C  0.60166540  0.70921023  0.15682283    -0.07180
C1378       C  0.58988046  0.69595012  0.18968721     0.13680
C1379       C  0.55627014  0.67566057  0.19240663    -0.24010
H1380       H  0.60047677  0.69121082  0.24554908     0.14970
H1381       H  0.64704364  0.73116444  0.13055644     0.15000
C1382       C  0.69724702  0.72949158  0.17855617    -0.23960
H1383       H  0.55044134  0.66721762  0.21985904     0.05210
H1384       H  0.55752869  0.65166553  0.17555656     0.08440
H1385       H  0.53508751  0.69325082  0.18303944     0.08440
H1386       H  0.70633904  0.71075180  0.15819555     0.08420
H1387       H  0.71428192  0.72517092  0.20183362     0.08420
H1388       H  0.70123520  0.75667477  0.16797203     0.05200
C1389       C  0.74011631  0.83324528  0.48306298    -0.20610
C1390       C  0.72537656  0.84872383  0.45268364    -0.07170
C1391       C  0.71713714  0.88556418  0.45289095     0.13690
C1392       C  0.71869343  0.90477893  0.48365159    -0.20660
C1393       C  0.73459579  0.89047654  0.51364212    -0.07180
C1394       C  0.74651388  0.85413877  0.51322391     0.13680
C1395       C  0.76577940  0.83682628  0.54379232    -0.24010
H1396       H  0.74693633  0.80513345  0.48301420     0.14970
H1397       H  0.71104706  0.93272775  0.48266451     0.15000
C1398       C  0.70777135  0.90618872  0.42058518    -0.23960
H1399       H  0.77169309  0.80827581  0.53878308     0.05210
H1400       H  0.74917888  0.83793558  0.56760051     0.08440
H1401       H  0.79156811  0.84999033  0.54833098     0.08440
H1402       H  0.67901361  0.91242109  0.42120980     0.08420
H1403       H  0.71550248  0.89115153  0.39695957     0.08420
H1404       H  0.72248671  0.93163121  0.41968162     0.05200
C1405       C  0.60361359  0.83795585  0.37604785    -0.20610
C1406       C  0.63690687  0.85218592  0.36772373    -0.07170
C1407       C  0.63974809  0.88973128  0.36432064     0.13690
C1408       C  0.61155456  0.91155619  0.37405353    -0.20660
C1409       C  0.57773095  0.89769473  0.37848965    -0.07180
C1410       C  0.57355468  0.86024967  0.37923077     0.13680
C1411       C  0.53750087  0.84403701  0.38333027    -0.24010
H1412       H  0.60118925  0.80943709  0.37994428     0.14970
H1413       H  0.61493003  0.94022301  0.37250692     0.15000
C1414       C  0.67049491  0.90823918  0.34744366    -0.23960
H1415       H  0.53904382  0.81449494  0.38491191     0.05210
H1416       H  0.52052317  0.85128674  0.36033224     0.08440
H1417       H  0.52504465  0.85395298  0.40779833     0.08440
H1418       H  0.66058918  0.92234052  0.32382237     0.08420
H1419       H  0.69195341  0.88969287  0.34009802     0.08420
H1420       H  0.68091124  0.92996260  0.36392007     0.05200
C1421       C  0.69539899  0.57953305  0.20332279    -0.20610
C1422       C  0.70645235  0.59188749  0.17001362    -0.07170
C1423       C  0.72173513  0.62610187  0.16803380     0.13690
C1424       C  0.72891141  0.64498033  0.19907157    -0.20660
C1425       C  0.71891264  0.63223279  0.23240642    -0.07180
C1426       C  0.70207821  0.59873242  0.23430531     0.13680
C1427       C  0.69064626  0.58284237  0.26888937    -0.24010
H1428       H  0.68494856  0.55276671  0.20565515     0.14970
H1429       H  0.74082393  0.67097636  0.19714133     0.15000
C1430       C  0.73105465  0.64275897  0.13314491    -0.23960
H1431       H  0.70353197  0.55635587  0.27271107     0.05210
H1432       H  0.66144602  0.57949262  0.26876349     0.08440
H1433       H  0.69813542  0.59970699  0.29159673     0.08440
H1434       H  0.70687518  0.64547489  0.11644811     0.08420
H1435       H  0.75077669  0.62651214  0.11948061     0.08420
H1436       H  0.74315395  0.66938872  0.13621305     0.05200
C1437       C  0.71398726  0.44418840  0.21815197    -0.20610
C1438       C  0.71632384  0.42649353  0.18545958    -0.07170
C1439       C  0.71714918  0.38873522  0.18553707     0.13690
C1440       C  0.71541117  0.37023594  0.21772930    -0.20660
C1441       C  0.71215539  0.38793112  0.24999412    -0.07180
C1442       C  0.71164002  0.42535130  0.25021136     0.13680
C1443       C  0.70861745  0.44523890  0.28431500    -0.24010
H1444       H  0.71421355  0.47304517  0.21885384     0.14970
H1445       H  0.71589071  0.34144915  0.21770865     0.15000
C1446       C  0.71972012  0.36734537  0.15217620    -0.23960
H1447       H  0.70919736  0.47455408  0.28005647     0.05210
H1448       H  0.73111215  0.43766459  0.30197122     0.08440
H1449       H  0.68333358  0.43849745  0.29741438     0.08440
H1450       H  0.74400760  0.37380216  0.13762954     0.08420
H1451       H  0.69640086  0.37302169  0.13499725     0.08420
H1452       H  0.72138903  0.33837650  0.15769119     0.05200
C1453       C  0.69646581  0.45431922  0.95455922    -0.20610
C1454       C  0.69603094  0.44159289  0.98987968    -0.07170
C1455       C  0.69482178  0.40430034  0.99495362     0.13690
C1456       C  0.70066984  0.38147327  0.96608225    -0.20660
C1457       C  0.70520612  0.39450867  0.93134879    -0.07180
C1458       C  0.70159231  0.43150208  0.92569373     0.13680
C1459       C  0.70379627  0.44694627  0.88904139    -0.24010
H1460       H  0.69634568  0.48279287  0.94963512     0.14970
H1461       H  0.70006832  0.35297763  0.97050452     0.15000
C1462       C  0.68509586  0.38768872  0.02968610    -0.23960
H1463       H  0.70142174  0.47646858  0.88903331     0.05210
H1464       H  0.68212488  0.43631996  0.87231136     0.08440
H1465       H  0.72970983  0.43964958  0.87735649     0.08440
H1466       H  0.65966150  0.37356315  0.02631040     0.08420
H1467       H  0.68055693  0.40735948  0.05067952     0.08420
H1468       H  0.70587559  0.36836196  0.03837563     0.05200
C1469       C  0.81142861  0.63498574  0.21460230    -0.20610
C1470       C  0.81832511  0.66585137  0.19451522    -0.07170
C1471       C  0.82999762  0.66206409  0.15964032     0.13690
C1472       C  0.83547749  0.62785854  0.14622276    -0.20660
C1473       C  0.82663301  0.59703503  0.16542133    -0.07180
C1474       C  0.81565674  0.60073352  0.20064932     0.13680
C1475       C  0.80858634  0.56878019  0.22376862    -0.24010
H1476       H  0.80430625  0.63772820  0.24201744     0.14970
H1477       H  0.84455535  0.62507207  0.11960642     0.15000
C1478       C  0.83686712  0.69426742  0.13677858    -0.23960
H1479       H  0.80110805  0.57674108  0.25080638     0.05210
H1480       H  0.83277763  0.55182501  0.22547556     0.08440
H1481       H  0.78655174  0.55281985  0.21320246     0.08440
H1482       H  0.85828209  0.71067473  0.14829502     0.08420
H1483       H  0.81229347  0.71064406  0.13458132     0.08420
H1484       H  0.84494109  0.68659842  0.10980057     0.05200
C1485       C  0.79693984  0.37462229  0.21650156    -0.20610
C1486       C  0.79733260  0.33984812  0.20365453    -0.07170
C1487       C  0.80585994  0.33555394  0.16748678     0.13690
C1488       C  0.81178446  0.36612204  0.14580389    -0.20660
C1489       C  0.81386641  0.40052786  0.16055719    -0.07180
C1490       C  0.81109755  0.40294792  0.19752605     0.13680
C1491       C  0.82411604  0.43461340  0.21809658    -0.24010
H1492       H  0.79030184  0.37865931  0.24341760     0.14970
H1493       H  0.81398851  0.36306816  0.11756115     0.15000
C1494       C  0.80783487  0.29928097  0.15122239    -0.23960
H1495       H  0.84299923  0.42514999  0.23840646     0.05210
H1496       H  0.80155890  0.44867199  0.23063354     0.08440
H1497       H  0.83982719  0.45349209  0.20208897     0.08440
H1498       H  0.80175350  0.27786014  0.17053577     0.08420
H1499       H  0.83486771  0.29460647  0.14083840     0.08420
H1500       H  0.78836728  0.29772144  0.12919502     0.05200
C1501       C  0.87445849  0.63177654  0.28059286    -0.20610
C1502       C  0.89384892  0.66012453  0.26624677    -0.07170
C1503       C  0.92851038  0.65214659  0.25380503     0.13690
C1504       C  0.94303212  0.61728329  0.25770124    -0.20660
C1505       C  0.92404764  0.58920115  0.27345075    -0.07180
C1506       C  0.88869614  0.59696286  0.28443039     0.13680
C1507       C  0.86511144  0.56879131  0.30022095    -0.24010
H1508       H  0.84739033  0.63672833  0.28837183     0.14970
H1509       H  0.97013105  0.61255501  0.24967209     0.15000
C1510       C  0.95158447  0.68036738  0.23768332    -0.23960
H1511       H  0.83747050  0.57854758  0.30324916     0.05210
H1512       H  0.87443364  0.56112791  0.32699910     0.08440
H1513       H  0.86454878  0.54500881  0.28304389     0.08440
H1514       H  0.93877294  0.70706065  0.23725348     0.08420
H1515       H  0.95811477  0.67295436  0.21022989     0.08420
H1516       H  0.97654661  0.68245858  0.25320809     0.05200
C1517       C  0.90724372  0.35235658  0.27444303    -0.20610
C1518       C  0.87184172  0.35251481  0.28502108    -0.07170
C1519       C  0.85658878  0.38553404  0.29612579     0.13690
C1520       C  0.87762515  0.41587616  0.29831425    -0.20660
C1521       C  0.91268353  0.41584625  0.28706147    -0.07180
C1522       C  0.92770729  0.38340384  0.27499407     0.13680
C1523       C  0.96544868  0.38063174  0.26338044    -0.24010
H1524       H  0.91867958  0.32772492  0.26481414     0.14970
H1525       H  0.86586802  0.44045297  0.30778606     0.15000
C1526       C  0.81803677  0.39185613  0.30358953    -0.23960
H1527       H  0.97246120  0.35320376  0.25496539     0.05210
H1528       H  0.98325580  0.38765669  0.28562142     0.08440
H1529       H  0.96968341  0.39873044  0.24056110     0.08440
H1530       H  0.81430434  0.39982325  0.33130251     0.08420
H1531       H  0.80201750  0.36852138  0.29755490     0.08420
H1532       H  0.80755837  0.41441162  0.28750808     0.05200
C1533       C  0.14123324  0.38016365  0.36330923    -0.20610
C1534       C  0.17206712  0.39832460  0.37269349    -0.07170
C1535       C  0.16970355  0.43533370  0.37837694     0.13690
C1536       C  0.13747292  0.45340556  0.37111119    -0.20660
C1537       C  0.10663498  0.43508391  0.36097086    -0.07180
C1538       C  0.10842349  0.39722259  0.35906785     0.13680
C1539       C  0.07651740  0.37369581  0.35263707    -0.24010
H1540       H  0.14265346  0.35173704  0.36028926     0.14970
H1541       H  0.13634491  0.48187105  0.37348661     0.15000
C1542       C  0.20127813  0.45560375  0.39157221    -0.23960
H1543       H  0.08375908  0.34506566  0.35101349     0.05210
H1544       H  0.06338444  0.37962477  0.32717945     0.08440
H1545       H  0.05725042  0.37704277  0.37432016     0.08440
H1546       H  0.22353271  0.45255711  0.37287381     0.08420
H1547       H  0.20964129  0.44517788  0.41783034     0.08420
H1548       H  0.19515270  0.48442025  0.39423505     0.05200
C1549       C  0.10753436  0.36644737  0.27232529    -0.20610
C1550       C  0.14175456  0.37456612  0.28445253    -0.07170
C1551       C  0.15143248  0.41095919  0.28597245     0.13690
C1552       C  0.12642074  0.43756595  0.27809992    -0.20660
C1553       C  0.09156107  0.42959369  0.26745609    -0.07180
C1554       C  0.08310976  0.39328344  0.26211462     0.13680
C1555       C  0.05012616  0.38123444  0.24368434    -0.24010
H1556       H  0.10116410  0.33882830  0.26713779     0.14970
H1557       H  0.13455821  0.46506927  0.28071066     0.15000
C1558       C  0.18913281  0.42257760  0.29171213    -0.23960
H1559       H  0.05757029  0.36534763  0.22028795     0.05210
H1560       H  0.03326994  0.40342743  0.23389630     0.08440
H1561       H  0.03519641  0.36377098  0.26180710     0.08440
H1562       H  0.19904292  0.43338837  0.26659998     0.08420
H1563       H  0.20692801  0.40054197  0.30025222     0.08420
H1564       H  0.19044865  0.44390371  0.31165156     0.05200
C1565       C  0.06702619  0.65263507  0.27497689    -0.20610
C1566       C  0.08468722  0.61930764  0.27601760    -0.07170
C1567       C  0.12216718  0.61827167  0.27743798     0.13690
C1568       C  0.14043367  0.65033502  0.27925661    -0.20660
C1569       C  0.12278490  0.68343987  0.27710413    -0.07180
C1570       C  0.08567591  0.68465625  0.27528850     0.13680
C1571       C  0.06528070  0.71925279  0.27335067    -0.24010
H1572       H  0.03832669  0.65391023  0.27434658     0.14970
H1573       H  0.16914927  0.64964427  0.27895603     0.15000
C1574       C  0.14363351  0.58411419  0.27626258    -0.23960
H1575       H  0.04980935  0.72059012  0.24835756     0.05210
H1576       H  0.04674073  0.72073191  0.29586119     0.08440
H1577       H  0.08282904  0.74279479  0.27459420     0.08440
H1578       H  0.13649590  0.56881473  0.25241557     0.08420
H1579       H  0.13891578  0.56758119  0.29998458     0.08420
H1580       H  0.17256279  0.58923242  0.27532740     0.05200
C1581       C  0.94296991  0.63181158  0.36421421    -0.20610
C1582       C  0.94054839  0.59851634  0.38037623    -0.07170
C1583       C  0.90821556  0.58852338  0.39556756     0.13690
C1584       C  0.87763678  0.60862117  0.38783616    -0.20660
C1585       C  0.87952529  0.64179271  0.37028696    -0.07180
C1586       C  0.91356123  0.65350251  0.35882778     0.13680
C1587       C  0.92197004  0.68822792  0.34104985    -0.24010
H1588       H  0.96829194  0.64033950  0.35378234     0.14970
H1589       H  0.85272531  0.60075815  0.39950752     0.15000
C1590       C  0.90660338  0.55973634  0.42313658    -0.23960
H1591       H  0.93183090  0.68384894  0.31433862     0.05210
H1592       H  0.94457217  0.70144665  0.35404447     0.08440
H1593       H  0.89961808  0.70624672  0.34035327     0.08440
H1594       H  0.92377848  0.56698880  0.44580984     0.08420
H1595       H  0.91614671  0.53451853  0.41253817     0.08420
H1596       H  0.87925990  0.55573910  0.43292348     0.05200
C1597       C  0.22176800  0.64311481  0.14469667    -0.20610
C1598       C  0.20140459  0.61152723  0.14726639    -0.07170
C1599       C  0.17308344  0.61164639  0.17116754     0.13690
C1600       C  0.16798673  0.64156420  0.19315232    -0.20660
C1601       C  0.19034113  0.67193601  0.19222347    -0.07180
C1602       C  0.21604554  0.67301151  0.16587286     0.13680
C1603       C  0.23812815  0.70515154  0.15891089    -0.24010
H1604       H  0.24335933  0.64485473  0.12618189     0.14970
H1605       H  0.14650462  0.64066900  0.21159386     0.15000
C1606       C  0.14829097  0.58058917  0.17378581    -0.23960
H1607       H  0.23626987  0.71276293  0.13061701     0.05210
H1608       H  0.26545398  0.69733808  0.16540654     0.08440
H1609       H  0.23036319  0.72877056  0.17442071     0.08440
H1610       H  0.16289062  0.55659692  0.18347012     0.08420
H1611       H  0.13645790  0.57521679  0.14749808     0.08420
H1612       H  0.12623317  0.58603781  0.19217931     0.05200
C1613       C  0.18637670  0.38582289  0.14972823    -0.20610
C1614       C  0.21916636  0.40238986  0.14616902    -0.07170
C1615       C  0.25010005  0.38165377  0.15616438     0.13690
C1616       C  0.24647957  0.35300392  0.17988937    -0.20660
C1617       C  0.21315526  0.34109182  0.18922319    -0.07180
C1618       C  0.18402815  0.35292663  0.16766277     0.13680
C1619       C  0.14894143  0.33411751  0.16810709    -0.24010
H1620       H  0.16284495  0.39809273  0.13822340     0.14970
H1621       H  0.26970888  0.34145435  0.19262073     0.15000
C1622       C  0.28726523  0.38620036  0.14243757    -0.23960
H1623       H  0.14147251  0.32662803  0.14082868     0.05210
H1624       H  0.12802111  0.35191119  0.17876129     0.08440
H1625       H  0.15033809  0.30941300  0.18440402     0.08440
H1626       H  0.29389274  0.36196104  0.12739815     0.08420
H1627       H  0.29252200  0.40803588  0.12410856     0.08420
H1628       H  0.30615540  0.38875349  0.16466190     0.05200
C1629       C  0.27990027  0.42178539  0.23650756    -0.20610
C1630       C  0.31326406  0.40656027  0.24104799    -0.07170
C1631       C  0.34260916  0.42500961  0.22577041     0.13690
C1632       C  0.33671296  0.44920524  0.19763880    -0.20660
C1633       C  0.30237112  0.46055944  0.18903656    -0.07180
C1634       C  0.27473315  0.45093346  0.21337411     0.13680
C1635       C  0.23924952  0.46949275  0.21666022    -0.24010
H1636       H  0.25748198  0.41002619  0.24976683     0.14970
H1637       H  0.35879226  0.45829435  0.18197496     0.15000
C1638       C  0.38040701  0.41664928  0.23626778    -0.23960
H1639       H  0.23520168  0.47621446  0.24476461     0.05210
H1640       H  0.21770135  0.45158814  0.20790962     0.08440
H1641       H  0.23667429  0.49538722  0.20319806     0.08440
H1642       H  0.39491640  0.40519268  0.21362370     0.08420
H1643       H  0.39371656  0.44154496  0.24447977     0.08420
H1644       H  0.38191313  0.39761159  0.25879302     0.05200
C1645       C  0.38446374  0.72439452  0.16532577    -0.20610
C1646       C  0.41983947  0.71358025  0.16691346    -0.07170
C1647       C  0.43352543  0.70056123  0.19951691     0.13690
C1648       C  0.41192449  0.69962945  0.22934956    -0.20660
C1649       C  0.37675234  0.71125750  0.22773109    -0.07180
C1650       C  0.36267447  0.72294435  0.19468602     0.13680
C1651       C  0.32442948  0.73128369  0.18732497    -0.24010
H1652       H  0.37351074  0.73441266  0.14057048     0.14970
H1653       H  0.42235820  0.68928283  0.25414492     0.15000
C1654       C  0.47135495  0.69017677  0.20417214    -0.23960
H1655       H  0.31693499  0.71701851  0.16303766     0.05210
H1656       H  0.30644437  0.72283395  0.20851163     0.08440
H1657       H  0.32084032  0.75998072  0.18130637     0.08440
H1658       H  0.48704903  0.71462633  0.20030846     0.08420
H1659       H  0.47830448  0.66911642  0.18500575     0.08420
H1660       H  0.47738565  0.67970718  0.23104748     0.05200
C1661       C  0.31212536  0.63583018  0.19818309    -0.20610
C1662       C  0.29821084  0.63052971  0.23211641    -0.07170
C1663       C  0.28019631  0.59848723  0.23895849     0.13690
C1664       C  0.27801101  0.57238527  0.21218928    -0.20660
C1665       C  0.29402589  0.57721797  0.17886310    -0.07180
C1666       C  0.31113223  0.60995450  0.17203761     0.13680
C1667       C  0.32811335  0.61884646  0.13714598    -0.24010
H1668       H  0.32573907  0.66025583  0.19246498     0.14970
H1669       H  0.26377907  0.54809101  0.21745831     0.15000
C1670       C  0.26372298  0.59167769  0.27427908    -0.23960
H1671       H  0.33976650  0.64594785  0.13683969     0.05210
H1672       H  0.30806182  0.61813600  0.11562009     0.08440
H1673       H  0.34997791  0.59972154  0.13184922     0.08440
H1674       H  0.24290009  0.61202634  0.27928150     0.08420
H1675       H  0.28429083  0.59296224  0.29530252     0.08420
H1676       H  0.25119204  0.56502130  0.27554736     0.05200
C1677       C  0.13752257  0.56667889  0.37149732    -0.20610
C1678       C  0.10212199  0.57868261  0.36801294    -0.07170
C1679       C  0.09611880  0.61602330  0.36410192     0.13690
C1680       C  0.12511740  0.63879729  0.35983468    -0.20660
C1681       C  0.16021717  0.62696135  0.36389539    -0.07180
C1682       C  0.16637027  0.59041619  0.37062892     0.13680
C1683       C  0.20347903  0.57664224  0.37671219    -0.24010
H1684       H  0.14287023  0.53864027  0.37441891     0.14970
H1685       H  0.12043757  0.66681489  0.35488775     0.15000
C1686       C  0.05954217  0.63285666  0.36505743    -0.23960
H1687       H  0.20404061  0.54734561  0.38089719     0.05210
H1688       H  0.21519848  0.58929995  0.40038103     0.08440
H1689       H  0.21996283  0.58299141  0.35343118     0.08440
H1690       H  0.04647942  0.62590178  0.39025708     0.08420
H1691       H  0.06032179  0.66226299  0.36267767     0.08420
H1692       H  0.04282143  0.62446187  0.34281559     0.05200
C1693       C  0.67461287  0.81950840  0.99498350    -0.20610
C1694       C  0.67267808  0.80924585  0.95980518    -0.07170
C1695       C  0.63813278  0.80446533  0.94443554     0.13690
C1696       C  0.60803874  0.80428674  0.96634979    -0.20660
C1697       C  0.61086938  0.81324976  0.00199008    -0.07180
C1698       C  0.64413140  0.82431315  0.01482463     0.13680
C1699       C  0.64825515  0.84032333  0.05030342    -0.24010
H1700       H  0.70008282  0.82649725  0.00635963     0.14970
H1701       H  0.58248665  0.79678502  0.95560996     0.15000
C1702       C  0.63104709  0.80424117  0.90517225    -0.23960
H1703       H  0.66435414  0.86492002  0.04861072     0.05210
H1704       H  0.66180100  0.82021446  0.06729650     0.08440
H1705       H  0.62211978  0.84808743  0.06108857     0.08440
H1706       H  0.65493759  0.80886024  0.88942977     0.08420
H1707       H  0.61202650  0.82591357  0.89814851     0.08420
H1708       H  0.61865580  0.77918003  0.89678729     0.05200
C1709       C  0.64968067  0.88929771  0.91175591    -0.20610
C1710       C  0.68322303  0.89370478  0.89582033    -0.07170
C1711       C  0.68894237  0.92592552  0.87796072     0.13690
C1712       C  0.65928749  0.94747285  0.86887145    -0.20660
C1713       C  0.62426384  0.93914583  0.87981585    -0.07180
C1714       C  0.62010162  0.91063987  0.90347060     0.13680
C1715       C  0.58457233  0.90106026  0.91860964    -0.24010
H1716       H  0.64603753  0.86853751  0.93064189     0.14970
H1717       H  0.66344986  0.96947602  0.85079455     0.15000
C1718       C  0.72561367  0.93639526  0.86682555    -0.23960
H1719       H  0.58652109  0.87803652  0.93712964     0.05210
H1720       H  0.56598233  0.89362766  0.89711496     0.08440
H1721       H  0.57366005  0.92402218  0.93336524     0.08440
H1722       H  0.73710895  0.91592068  0.84926456     0.08420
H1723       H  0.74284373  0.93887364  0.89051147     0.08420
H1724       H  0.72538941  0.96236188  0.85255299     0.05200
C1725       C  0.38968024  0.81642360  0.94820484    -0.20610
C1726       C  0.35806735  0.82445981  0.96577110    -0.07170
C1727       C  0.36047150  0.83386382  0.00175150     0.13690
C1728       C  0.39391862  0.83423319  0.01915913    -0.20660
C1729       C  0.42565223  0.82610159  0.00138549    -0.07180
C1730       C  0.42308008  0.81760133  0.96492971     0.13680
C1731       C  0.45535293  0.80996748  0.94281541    -0.24010
H1732       H  0.38814116  0.80964597  0.92053885     0.14970
H1733       H  0.39504557  0.83968907  0.04712741     0.15000
C1734       C  0.32750845  0.84294551  0.02185028    -0.23960
H1735       H  0.44871213  0.80955487  0.91424600     0.05210
H1736       H  0.46685980  0.78351938  0.94956759     0.08440
H1737       H  0.47560632  0.83081469  0.94695514     0.08440
H1738       H  0.30907419  0.82004670  0.02107144     0.08420
H1739       H  0.31425636  0.86668524  0.00989110     0.08420
H1740       H  0.33355601  0.84890088  0.04986023     0.05200
C1741       C  0.39219592  0.89174488  0.89252796    -0.20610
C1742       C  0.35706991  0.90346743  0.88630711    -0.07170
C1743       C  0.35135007  0.94013243  0.88047010     0.13690
C1744       C  0.38077327  0.96319190  0.87820719    -0.20660
C1745       C  0.41621560  0.95114451  0.88391144    -0.07180
C1746       C  0.42109209  0.91513587  0.89394996     0.13680
C1747       C  0.45586085  0.90019380  0.90721261    -0.24010
H1748       H  0.39704573  0.86398349  0.89809835     0.14970
H1749       H  0.37609899  0.99054752  0.86994996     0.15000
C1750       C  0.31437405  0.95454428  0.87520653    -0.23960
H1751       H  0.45192034  0.88903894  0.93404006     0.05210
H1752       H  0.47678779  0.92040133  0.90973880     0.08440
H1753       H  0.46504774  0.87849544  0.88976878     0.08440
H1754       H  0.29846443  0.94927923  0.89912880     0.08420
H1755       H  0.30172582  0.94132157  0.85230676     0.08420
H1756       H  0.31431685  0.98374306  0.87015689     0.05200
C1757       C  0.20306125  0.67079088  0.98772371    -0.20610
C1758       C  0.21122118  0.66184015  0.95296107    -0.07170
C1759       C  0.21793689  0.62574485  0.94433830     0.13690
C1760       C  0.21546477  0.59959517  0.97042998    -0.20660
C1761       C  0.20839101  0.60858774  0.00533856    -0.07180
C1762       C  0.20263972  0.64462440  0.01426674     0.13680
C1763       C  0.19638489  0.65536545  0.05181908    -0.24010
H1764       H  0.19636362  0.69817685  0.99387741     0.14970
H1765       H  0.22158888  0.57214744  0.96384585     0.15000
C1766       C  0.22640578  0.61375030  0.90748385    -0.23960
H1767       H  0.19103368  0.68440707  0.05404505     0.05210
H1768       H  0.22021375  0.64900924  0.06796253     0.08440
H1769       H  0.17331493  0.64076171  0.06248794     0.08440
H1770       H  0.22797623  0.63608756  0.88833314     0.08420
H1771       H  0.20553174  0.59532563  0.89820696     0.08420
H1772       H  0.25230746  0.59950490  0.90756944     0.05200
C1773       C  0.21702871  0.38507352  0.94943614    -0.20610
C1774       C  0.21288141  0.35120362  0.96495925    -0.07170
C1775       C  0.20771843  0.34911060  0.00174494     0.13690
C1776       C  0.20972327  0.38037746  0.02216817    -0.20660
C1777       C  0.21371275  0.41427950  0.00643351    -0.07180
C1778       C  0.21610565  0.41647786  0.96932914     0.13680
C1779       C  0.21765277  0.45181897  0.95030599    -0.24010
H1780       H  0.21925207  0.38701702  0.92107463     0.14970
H1781       H  0.20897306  0.37830577  0.05065963     0.15000
C1782       C  0.20152854  0.31371317  0.01940933    -0.23960
H1783       H  0.21794659  0.44847388  0.92128514     0.05210
H1784       H  0.24194500  0.46621557  0.95752181     0.08440
H1785       H  0.19409053  0.46822057  0.95702303     0.08440
H1786       H  0.22417040  0.29550106  0.01412649     0.08420
H1787       H  0.17679936  0.30175217  0.00900523     0.08420
H1788       H  0.19891478  0.31645019  0.04838735     0.05200
C1789       C  0.84440872  0.41435663  0.80046020    -0.20610
C1790       C  0.84378165  0.39923053  0.76710585    -0.07170
C1791       C  0.87037975  0.41171428  0.74260919     0.13690
C1792       C  0.89994858  0.43081079  0.75514407    -0.20660
C1793       C  0.90250412  0.44179160  0.78991833    -0.07180
C1794       C  0.87253778  0.43538773  0.81221644     0.13680
C1795       C  0.86936282  0.44868678  0.84941269    -0.24010
H1796       H  0.82279132  0.40910068  0.81821005     0.14970
H1797       H  0.92120799  0.43774384  0.73739577     0.15000
C1798       C  0.86861156  0.40808990  0.70302137    -0.23960
H1799       H  0.84445361  0.44037436  0.86231972     0.05210
H1800       H  0.86965492  0.47787501  0.85031475     0.08440
H1801       H  0.89139410  0.43799669  0.86519579     0.08440
H1802       H  0.84396974  0.42090172  0.69275014     0.08420
H1803       H  0.87077370  0.38016142  0.69482766     0.08420
H1804       H  0.89070924  0.42192820  0.68960795     0.05200
C1805       C  0.13325365  0.38658227  0.80019595    -0.20610
C1806       C  0.16704640  0.40070751  0.79391611    -0.07170
C1807       C  0.16879931  0.43653880  0.78226672     0.13690
C1808       C  0.13732560  0.45624171  0.77588033    -0.20660
C1809       C  0.10347727  0.44103732  0.77984611    -0.07180
C1810       C  0.10174904  0.40523359  0.79154503     0.13680
C1811       C  0.06691500  0.38613601  0.79587846    -0.24010
H1812       H  0.13152123  0.36007692  0.81103170     0.14970
H1813       H  0.13909245  0.48437761  0.76942418     0.15000
C1814       C  0.20414030  0.45390689  0.77677944    -0.23960
H1815       H  0.06581330  0.37292733  0.82213682     0.05210
H1816       H  0.06380612  0.36618019  0.77487308     0.08440
H1817       H  0.04344185  0.40362141  0.79303542     0.08440
H1818       H  0.21918913  0.43974767  0.75609681     0.08420
H1819       H  0.21957585  0.45298898  0.80181319     0.08420
H1820       H  0.20111694  0.48224001  0.76848971     0.05200
C1821       C  0.07701852  0.63934959  0.89332336    -0.20610
C1822       C  0.06778521  0.63342578  0.85824620    -0.07170
C1823       C  0.07626878  0.66063266  0.83300808     0.13690
C1824       C  0.10269857  0.68561653  0.84139138    -0.20660
C1825       C  0.11448981  0.68869721  0.87617435    -0.07180
C1826       C  0.09478506  0.67043533  0.90255893     0.13680
C1827       C  0.09569127  0.68097193  0.94081514    -0.24010
H1828       H  0.06935903  0.62066971  0.91369517     0.14970
H1829       H  0.11458019  0.70161376  0.82081793     0.15000
C1830       C  0.05704057  0.66477803  0.79827664    -0.23960
H1831       H  0.10762511  0.65928330  0.95723415     0.05210
H1832       H  0.11092536  0.70582395  0.94480869     0.08440
H1833       H  0.06820782  0.68589678  0.94987264     0.08440
H1834       H  0.02813872  0.66722104  0.80302491     0.08420
H1835       H  0.06212227  0.64184302  0.78101389     0.08420
H1836       H  0.06520023  0.68928536  0.78410636     0.05200
C1837       C  0.14828670  0.39172262  0.88254494    -0.20610
C1838       C  0.13292710  0.35818221  0.88871917    -0.07170
C1839       C  0.09704162  0.35718895  0.89888472     0.13690
C1840       C  0.07715403  0.38913219  0.90053160    -0.20660
C1841       C  0.09190771  0.42250234  0.89220708    -0.07180
C1842       C  0.12846480  0.42368943  0.88435024     0.13680
C1843       C  0.14664435  0.45849756  0.87700330    -0.24010
H1844       H  0.17626908  0.39292368  0.87664330     0.14970
H1845       H  0.04921565  0.38803431  0.90650345     0.15000
C1846       C  0.07967276  0.32221569  0.90747968    -0.23960
H1847       H  0.17534926  0.45465191  0.87197853     0.05210
H1848       H  0.14373073  0.47639584  0.89994845     0.08440
H1849       H  0.13504506  0.47151143  0.85335811     0.08440
H1850       H  0.09348812  0.30889164  0.92994952     0.08420
H1851       H  0.08074145  0.30459720  0.88415327     0.08420
H1852       H  0.05155211  0.32585733  0.91499241     0.05200
C1853       C  0.18310362  0.60533117  0.80783152    -0.20610
C1854       C  0.17181743  0.63158992  0.78369466    -0.07170
C1855       C  0.13947472  0.62527057  0.76458720     0.13690
C1856       C  0.11959273  0.59465865  0.77090038    -0.20660
C1857       C  0.12881323  0.57069090  0.79737196    -0.07180
C1858       C  0.16227142  0.57489036  0.81480710     0.13680
C1859       C  0.17683010  0.54723806  0.84025331    -0.24010
H1860       H  0.20817772  0.60874092  0.82146547     0.14970
H1861       H  0.09458128  0.59119633  0.75714348     0.15000
C1862       C  0.12253949  0.65201886  0.74010904    -0.23960
H1863       H  0.20504491  0.55226562  0.84693879     0.05210
H1864       H  0.17543568  0.52044136  0.82815767     0.08440
H1865       H  0.16200577  0.54757954  0.86533027     0.08440
H1866       H  0.13790959  0.65547565  0.71583430     0.08420
H1867       H  0.11899081  0.67676200  0.75510510     0.08420
H1868       H  0.09587091  0.64403771  0.73064955     0.05200
C1869       C  0.33075453  0.86830855  0.68248457    -0.20610
C1870       C  0.31554608  0.87124527  0.71606723    -0.07170
C1871       C  0.30174830  0.90500229  0.72631019     0.13690
C1872       C  0.30153528  0.93315695  0.70234371    -0.20660
C1873       C  0.31374942  0.92951280  0.66777833    -0.07180
C1874       C  0.33044285  0.89705462  0.65830995     0.13680
C1875       C  0.34800541  0.89221745  0.62323243    -0.24010
H1876       H  0.34356171  0.84343968  0.67543291     0.14970
H1877       H  0.29017694  0.95832076  0.71075708     0.15000
C1878       C  0.28812593  0.91405782  0.76242807    -0.23960
H1879       H  0.36204400  0.86615476  0.62168395     0.05210
H1880       H  0.36776157  0.91355468  0.61900980     0.08440
H1881       H  0.32802626  0.89289326  0.60186195     0.08440
H1882       H  0.30222665  0.93757106  0.77291103     0.08420
H1883       H  0.29130192  0.89205071  0.78128789     0.08420
H1884       H  0.26014525  0.92241269  0.76144116     0.05200
C1885       C  0.42916435  0.83430294  0.81075208    -0.20610
C1886       C  0.39616249  0.85063191  0.80384534    -0.07170
C1887       C  0.39448653  0.88822114  0.80212222     0.13690
C1888       C  0.42483590  0.90784380  0.80090279    -0.20660
C1889       C  0.45744442  0.89269878  0.80873194    -0.07180
C1890       C  0.45996040  0.85528580  0.81484465     0.13680
C1891       C  0.49436414  0.83665677  0.82378834    -0.24010
H1892       H  0.43110820  0.80548955  0.81191733     0.14970
H1893       H  0.42222604  0.93623553  0.79603944     0.15000
C1894       C  0.36112815  0.90874624  0.79729187    -0.23960
H1895       H  0.49236038  0.82372962  0.85011384     0.05210
H1896       H  0.51727092  0.85489129  0.82402813     0.08440
H1897       H  0.49981469  0.81587832  0.80385826     0.08440
H1898       H  0.33951728  0.89442102  0.81017073     0.08420
H1899       H  0.35731284  0.91305890  0.76868357     0.08420
H1900       H  0.36259107  0.93533674  0.80975487     0.05200
C1901       C  0.37027325  0.74122627  0.96581265    -0.20610
C1902       C  0.38692294  0.73092104  0.93471626    -0.07170
C1903       C  0.42204000  0.71777625  0.93698860     0.13690
C1904       C  0.43953223  0.71587848  0.97010211    -0.20660
C1905       C  0.42223023  0.72575690  0.00142335    -0.07180
C1906       C  0.38622820  0.73681784  0.99898024     0.13680
C1907       C  0.36346453  0.74251831  0.03111326    -0.24010
H1908       H  0.34348066  0.75136557  0.96419549     0.14970
H1909       H  0.46697880  0.70751258  0.97134838     0.15000
C1910       C  0.44042913  0.70545997  0.90416197    -0.23960
H1911       H  0.33503588  0.74576674  0.02391063     0.05210
H1912       H  0.37088505  0.76697398  0.04537398     0.08440
H1913       H  0.36582074  0.71904045  0.04901113     0.08440
H1914       H  0.44441143  0.72851695  0.88614112     0.08420
H1915       H  0.42467345  0.68502859  0.89028551     0.08420
H1916       H  0.46619286  0.69284714  0.91029155     0.05200
C1917       C  0.33208524  0.61054977  0.93167068    -0.20610
C1918       C  0.31342650  0.64285446  0.93629652    -0.07170
C1919       C  0.30301035  0.65130476  0.97122988     0.13690
C1920       C  0.30695480  0.62603361  0.99841063    -0.20660
C1921       C  0.32357050  0.59316642  0.99303467    -0.07180
C1922       C  0.33919344  0.58712406  0.96011407     0.13680
C1923       C  0.37111360  0.56336521  0.95789843    -0.24010
H1924       H  0.34519848  0.60592439  0.90679035     0.14970
H1925       H  0.29676584  0.63200937  0.02428464     0.15000
C1926       C  0.29083748  0.68785211  0.98142295    -0.23960
H1927       H  0.37221256  0.55060730  0.93169549     0.05210
H1928       H  0.37162963  0.54318012  0.97945874     0.08440
H1929       H  0.39523240  0.57989595  0.96061761     0.08440
H1930       H  0.26766739  0.69601264  0.96604844     0.08420
H1931       H  0.31201370  0.70667605  0.97626067     0.08420
H1932       H  0.28398583  0.68969697  0.00975800     0.05200
C1933       C  0.13865553  0.70924317  0.65277733    -0.20610
C1934       C  0.10707724  0.72133203  0.66861675    -0.07170
C1935       C  0.10831262  0.73084233  0.70464021     0.13690
C1936       C  0.14092907  0.72992601  0.72275585    -0.20660
C1937       C  0.17230063  0.71773081  0.70704477    -0.07180
C1938       C  0.17099099  0.70705650  0.67150198     0.13680
C1939       C  0.20384496  0.69419251  0.65311147    -0.24010
H1940       H  0.13823150  0.70207309  0.62525591     0.14970
H1941       H  0.14116819  0.73565142  0.75059979     0.15000
C1942       C  0.07561047  0.74133753  0.72482349    -0.23960
H1943       H  0.19846317  0.68813899  0.62498928     0.05210
H1944       H  0.21428772  0.66956771  0.66591408     0.08440
H1945       H  0.22446516  0.71508355  0.65419892     0.08440
H1946       H  0.05597866  0.71950013  0.72365881     0.08420
H1947       H  0.06368847  0.76610990  0.71380429     0.08420
H1948       H  0.08167654  0.74646401  0.75300273     0.05200
C1949       C  0.16957362  0.69902840  0.48577848    -0.20610
C1950       C  0.15997658  0.70618494  0.45064497    -0.07170
C1951       C  0.12342851  0.71066064  0.44236384     0.13690
C1952       C  0.09798228  0.70875620  0.46890188    -0.20660
C1953       C  0.10756681  0.70415171  0.50427297    -0.07180
C1954       C  0.14404964  0.69861790  0.51275603     0.13680
C1955       C  0.15636570  0.69230825  0.55017027    -0.24010
H1956       H  0.19712766  0.69334228  0.49203574     0.14970
H1957       H  0.07044007  0.71377458  0.46195835     0.15000
C1958       C  0.10968467  0.71698093  0.40560217    -0.23960
H1959       H  0.18483775  0.68464522  0.55147191     0.05210
H1960       H  0.14088984  0.67042875  0.56227816     0.08440
H1961       H  0.15329966  0.71695109  0.56575626     0.08440
H1962       H  0.09206528  0.69479070  0.39881102     0.08420
H1963       H  0.13079172  0.71946413  0.38574233     0.08420
H1964       H  0.09331813  0.74151712  0.40455744     0.05200
C1965       C  0.92341595  0.73671070  0.46867985    -0.20610
C1966       C  0.91951929  0.72407982  0.50274693    -0.07170
C1967       C  0.88685748  0.70920220  0.51285665     0.13690
C1968       C  0.85812280  0.70959400  0.48845086    -0.20660
C1969       C  0.86257088  0.72179999  0.45341157    -0.07180
C1970       C  0.89688315  0.73355912  0.44379774     0.13680
C1971       C  0.90978725  0.73709392  0.40708147    -0.24010
H1972       H  0.94849695  0.74804364  0.46052105     0.14970
H1973       H  0.83352013  0.69675902  0.49543050     0.15000
C1974       C  0.88410883  0.68823337  0.54664410    -0.23960
H1975       H  0.93220212  0.71817994  0.40475978     0.05210
H1976       H  0.91995331  0.76402355  0.40129336     0.08440
H1977       H  0.88939054  0.73038951  0.38801344     0.08440
H1978       H  0.89362204  0.70369720  0.56935257     0.08420
H1979       H  0.90106126  0.66400585  0.54485036     0.08420
H1980       H  0.85646429  0.67977450  0.55164112     0.05200
C1981       C  0.13732863  0.80221242  0.65917686    -0.20610
C1982       C  0.10298040  0.81588482  0.65499527    -0.07170
C1983       C  0.08685496  0.83241610  0.68418931     0.13690
C1984       C  0.10241493  0.82833843  0.71790180    -0.20660
C1985       C  0.13716037  0.81479669  0.72223518    -0.07180
C1986       C  0.15554345  0.80442752  0.69126883     0.13680
C1987       C  0.19501993  0.79947081  0.68918225    -0.24010
H1988       H  0.15108541  0.79139517  0.63663924     0.14970
H1989       H  0.08978687  0.84079476  0.74025655     0.15000
C1990       C  0.05875668  0.86083267  0.67919633    -0.23960
H1991       H  0.20496501  0.81799366  0.66893483     0.05210
H1992       H  0.20908182  0.80503823  0.71390871     0.08440
H1993       H  0.20218199  0.77249865  0.68027534     0.08440
H1994       H  0.03659669  0.85219032  0.66260828     0.08420
H1995       H  0.07078349  0.88419428  0.66589916     0.08420
H1996       H  0.04784453  0.86979628  0.70475139     0.05200
C1997       C  0.19475536  0.94762977  0.68797068    -0.20610
C1998       C  0.21023819  0.92990145  0.65919085    -0.07170
C1999       C  0.22605196  0.89572058  0.66614865     0.13690
C2000       C  0.22618100  0.88130061  0.70056230    -0.20660
C2001       C  0.20900548  0.89781944  0.72863570    -0.07180
C2002       C  0.19359299  0.93195469  0.72216407     0.13680
C2003       C  0.17647248  0.95215692  0.75168163    -0.24010
H2004       H  0.18365578  0.97404677  0.68384042     0.14970
H2005       H  0.23886748  0.85584762  0.70537898     0.15000
C2006       C  0.24243317  0.87311569  0.63763976    -0.23960
H2007       H  0.16680259  0.97880917  0.74277191     0.05210
H2008       H  0.19610712  0.95604176  0.77322881     0.08440
H2009       H  0.15353580  0.93730141  0.76217602     0.08440
H2010       H  0.26618904  0.88582887  0.62663155     0.08420
H2011       H  0.22261951  0.86834898  0.61645223     0.08420
H2012       H  0.25196284  0.84688423  0.64772728     0.05200
C2013       C  0.13763395  0.79577817  0.44010745    -0.20610
C2014       C  0.12348725  0.80599134  0.40725058    -0.07170
C2015       C  0.08714093  0.81389931  0.40432449     0.13690
C2016       C  0.06585837  0.81087540  0.43437375    -0.20660
C2017       C  0.08069450  0.80414392  0.46813756    -0.07180
C2018       C  0.11759645  0.79810746  0.47089469     0.13680
C2019       C  0.13687578  0.79635953  0.50577985    -0.24010
H2020       H  0.16583209  0.79033033  0.44228443     0.14970
H2021       H  0.03747704  0.81344186  0.43123330     0.15000
C2022       C  0.07091186  0.82434507  0.36937474    -0.23960
H2023       H  0.16608266  0.79524695  0.50260476     0.05210
H2024       H  0.13008500  0.77228651  0.52016468     0.08440
H2025       H  0.13030637  0.82014436  0.52170014     0.08440
H2026       H  0.07563548  0.80281956  0.35003158     0.08420
H2027       H  0.08301562  0.84935361  0.35956936     0.08420
H2028       H  0.04187939  0.82882402  0.37141786     0.05200
C2029       C  0.19531048  0.92407359  0.47300647    -0.20610
C2030       C  0.22588464  0.94287956  0.46669720    -0.07170
C2031       C  0.24358987  0.93843871  0.43364995     0.13690
C2032       C  0.23097220  0.91346699  0.40950442    -0.20660
C2033       C  0.20271378  0.89140763  0.41776226    -0.07180
C2034       C  0.18488264  0.89690322  0.45046363     0.13680
C2035       C  0.15925558  0.87108420  0.46564846    -0.24010
H2036       H  0.18172372  0.92804523  0.49775202     0.14970
H2037       H  0.24434188  0.90996641  0.38459329     0.15000
C2038       C  0.27671222  0.95832367  0.42340896    -0.23960
H2039       H  0.15162019  0.87754760  0.49308247     0.05210
H2040       H  0.17342127  0.84536675  0.46693064     0.08440
H2041       H  0.13424562  0.87022253  0.45042372     0.08440
H2042       H  0.28646622  0.95058390  0.39699887     0.08420
H2043       H  0.27112023  0.98738519  0.42221817     0.08420
H2044       H  0.29846359  0.95230937  0.44248768     0.05200
C2045       C  0.93529223  0.66349078  0.88743555    -0.20610
C2046       C  0.90058150  0.65530106  0.87705036    -0.07170
C2047       C  0.89177416  0.61858215  0.87492958     0.13690
C2048       C  0.91594241  0.59202737  0.88489853    -0.20660
C2049       C  0.95039677  0.59988994  0.89454559    -0.07180
C2050       C  0.95995702  0.63633049  0.89640651     0.13680
C2051       C  0.99522444  0.64724255  0.91037815    -0.24010
H2052       H  0.94216322  0.69109711  0.89192015     0.14970
H2053       H  0.90799321  0.56432941  0.88377766     0.15000
C2054       C  0.85468334  0.60642498  0.87193528    -0.23960
H2055       H  0.99164051  0.66427316  0.93387832     0.05210
H2056       H  0.00915617  0.66282731  0.88987602     0.08440
H2057       H  0.01094978  0.62358377  0.91869222     0.08440
H2058       H  0.83656462  0.62732559  0.86184705     0.08420
H2059       H  0.84812312  0.59762270  0.89874862     0.08420
H2060       H  0.85193993  0.58305815  0.85520119     0.05200
C2061       C  0.82964549  0.64297953  0.98864323    -0.20610
C2062       C  0.81509389  0.64089701  0.95452292    -0.07170
C2063       C  0.79913111  0.60808630  0.94439578     0.13690
C2064       C  0.79923052  0.57918466  0.96807631    -0.20660
C2065       C  0.81351849  0.58141389  0.00230610    -0.07180
C2066       C  0.82848933  0.61429277  0.01266613     0.13680
C2067       C  0.84207752  0.62025933  0.04932013    -0.24010
H2068       H  0.84227539  0.66756632  0.99647225     0.14970
H2069       H  0.78664193  0.55474667  0.95975322     0.15000
C2070       C  0.78261470  0.60100608  0.90877156    -0.23960
H2071       H  0.85504940  0.64656566  0.05209680     0.05210
H2072       H  0.86174994  0.59929255  0.05675235     0.08440
H2073       H  0.81918228  0.61992172  0.06736537     0.08440
H2074       H  0.78602765  0.62324877  0.89028511     0.08420
H2075       H  0.75428926  0.59481056  0.91097482     0.08420
H2076       H  0.79441137  0.57672199  0.89701761     0.05200
C2077       C  0.92152128  0.34355064  0.88113384    -0.20610
C2078       C  0.89017454  0.35437763  0.89732501    -0.07170
C2079       C  0.89087891  0.38748777  0.91573289     0.13690
C2080       C  0.92135033  0.40874187  0.91672004    -0.20660
C2081       C  0.95055509  0.40050449  0.89640389    -0.07180
C2082       C  0.95159064  0.36593576  0.88033581     0.13680
C2083       C  0.98437960  0.35184588  0.86252279    -0.24010
H2084       H  0.92238993  0.31765554  0.86873123     0.14970
H2085       H  0.92020647  0.43462620  0.92918032     0.15000
C2086       C  0.85846528  0.40322442  0.93142041    -0.23960
H2087       H  0.98177035  0.32323454  0.85578097     0.05210
H2088       H  0.00731228  0.35412005  0.88056264     0.08440
H2089       H  0.98970730  0.36618523  0.83754626     0.08440
H2090       H  0.85317389  0.38942699  0.95659497     0.08420
H2091       H  0.83651206  0.40122002  0.91207271     0.08420
H2092       H  0.86158155  0.43195047  0.93743105     0.05200
C2093       C  0.78698215  0.36982182  0.95425060    -0.20610
C2094       C  0.79578815  0.33539602  0.96608406    -0.07170
C2095       C  0.79909832  0.32865118  0.00243973     0.13690
C2096       C  0.79306695  0.35672449  0.02597428    -0.20660
C2097       C  0.78754926  0.39191834  0.01359525    -0.07180
C2098       C  0.78639605  0.39860454  0.97712324     0.13680
C2099       C  0.78727447  0.43569861  0.96166991    -0.24010
H2100       H  0.78593216  0.37519367  0.92630654     0.14970
H2101       H  0.79350691  0.35139919  0.05408091     0.15000
C2102       C  0.80910329  0.29217019  0.01606358    -0.23960
H2103       H  0.78779304  0.43571334  0.93243247     0.05210
H2104       H  0.81099956  0.44993530  0.97145079     0.08440
H2105       H  0.76379262  0.45064297  0.96894028     0.08440
H2106       H  0.83558870  0.28441027  0.00604223     0.08420
H2107       H  0.78923144  0.27254125  0.00698813     0.08420
H2108       H  0.81018826  0.29134574  0.04531491     0.05200
C2109       C  0.79557837  0.86072724  0.68437827    -0.20610
C2110       C  0.80452112  0.86818103  0.71933022    -0.07170
C2111       C  0.81930862  0.90160685  0.72775822     0.13690
C2112       C  0.82144447  0.92772978  0.70125990    -0.20660
C2113       C  0.81312806  0.91944414  0.66622715    -0.07180
C2114       C  0.80376721  0.88438450  0.65763805     0.13680
C2115       C  0.80111000  0.87123146  0.62059155    -0.24010
H2116       H  0.78632978  0.83432103  0.67751748     0.14970
H2117       H  0.82826334  0.95486863  0.70796155     0.15000
C2118       C  0.83248693  0.90973782  0.76433703    -0.23960
H2119       H  0.81399031  0.84458578  0.61867626     0.05210
H2120       H  0.81534210  0.88868529  0.60198233     0.08440
H2121       H  0.77279208  0.86893365  0.61326882     0.08440
H2122       H  0.85393336  0.89068041  0.77196672     0.08420
H2123       H  0.81039634  0.90755370  0.78331242     0.08420
H2124       H  0.84331770  0.93711224  0.76598519     0.05200
C2125       C  0.89949497  0.84363341  0.71046616    -0.20610
C2126       C  0.89933095  0.81817599  0.73884177    -0.07170
C2127       C  0.93272048  0.80471222  0.74895399     0.13690
C2128       C  0.96071140  0.80676380  0.72437251    -0.20660
C2129       C  0.95631507  0.82322612  0.69045505    -0.07180
C2130       C  0.92595337  0.84415972  0.68483314     0.13680
C2131       C  0.92035621  0.86598187  0.65169369    -0.24010
H2132       H  0.87673770  0.86064455  0.70567997     0.14970
H2133       H  0.98559667  0.79381999  0.73129274     0.15000
C2134       C  0.94023610  0.79246167  0.78611668    -0.23960
H2135       H  0.89579400  0.88244156  0.65285042     0.05210
H2136       H  0.91764188  0.84822034  0.62864427     0.08440
H2137       H  0.94306001  0.88418724  0.64785032     0.08440
H2138       H  0.92369177  0.76987261  0.79394028     0.08420
H2139       H  0.93480943  0.81478414  0.80435621     0.08420
H2140       H  0.96838497  0.78425337  0.78967920     0.05200
C2141       C  0.83812083  0.89953963  0.45027266    -0.20610
C2142       C  0.82058010  0.90131294  0.41699109    -0.07170
C2143       C  0.79860156  0.93109381  0.41025829     0.13690
C2144       C  0.79209922  0.95548066  0.43776319    -0.20660
C2145       C  0.80763344  0.95142579  0.47187428    -0.07180
C2146       C  0.83259992  0.92399466  0.47719548     0.13680
C2147       C  0.85374616  0.91977234  0.51094828    -0.24010
H2148       H  0.85713408  0.87875790  0.45570766     0.14970
H2149       H  0.77380447  0.97737504  0.43273758     0.15000
C2150       C  0.78325523  0.93814080  0.37408942    -0.23960
H2151       H  0.87401609  0.89823124  0.50918596     0.05210
H2152       H  0.83627541  0.91268760  0.53311813     0.08440
H2153       H  0.86784461  0.94493265  0.51674283     0.08440
H2154       H  0.76502831  0.91658244  0.36635312     0.08420
H2155       H  0.80496809  0.93987313  0.35462483     0.08420
H2156       H  0.76803750  0.96359428  0.37306022     0.05200
C2157       C  0.89735089  0.81221536  0.49580419    -0.20610
C2158       C  0.93343228  0.82136406  0.49662462    -0.07170
C2159       C  0.94865789  0.83343498  0.46476512     0.13690
C2160       C  0.92943525  0.83106795  0.43263832    -0.20660
C2161       C  0.89382150  0.81996031  0.43136676    -0.07180
C2162       C  0.87716609  0.81258857  0.46423008     0.13680
C2163       C  0.83770298  0.80705048  0.46705846    -0.24010
H2164       H  0.88470435  0.80441687  0.52017715     0.14970
H2165       H  0.94147319  0.84045553  0.40849786     0.15000
C2166       C  0.98320009  0.85304469  0.46510202    -0.23960
H2167       H  0.82912981  0.80480730  0.49489751     0.05210
H2168       H  0.83014242  0.78241012  0.45401748     0.08440
H2169       H  0.82247732  0.82918355  0.45466767     0.08440
H2170       H  0.00458290  0.83600614  0.47576592     0.08420
H2171       H  0.98073812  0.87692526  0.48199852     0.08420
H2172       H  0.99085868  0.86206377  0.43830267     0.05200
C2173       C  0.27787158  0.84352525  0.47826838    -0.20610
C2174       C  0.31105487  0.83587141  0.46466424    -0.07170
C2175       C  0.34146748  0.84934108  0.48282948     0.13690
C2176       C  0.33772796  0.87936583  0.50430970    -0.20660
C2177       C  0.30404784  0.89086599  0.51383916    -0.07180
C2178       C  0.27460228  0.86828958  0.50544828     0.13680
C2179       C  0.24052432  0.86789614  0.52601913    -0.24010
H2180       H  0.25451894  0.83133376  0.46691501     0.14970
H2181       H  0.36091786  0.89288994  0.51439338     0.15000
C2182       C  0.37828866  0.83539109  0.47590765    -0.23960
H2183       H  0.22088569  0.84923324  0.51468210     0.05210
H2184       H  0.24621449  0.85870205  0.55336583     0.08440
H2185       H  0.22809451  0.89443103  0.52699653     0.08440
H2186       H  0.39464129  0.85659074  0.46372377     0.08420
H2187       H  0.37782282  0.81201149  0.45818039     0.08420
H2188       H  0.39087216  0.82687983  0.50117848     0.05200
C2189       C  0.43614353  0.88428923  0.37311650    -0.20610
C2190       C  0.42732029  0.92081071  0.37241060    -0.07170
C2191       C  0.39158096  0.93145867  0.36966389     0.13690
C2192       C  0.36598785  0.90543389  0.36406353    -0.20660
C2193       C  0.37497149  0.86889410  0.36387768    -0.07180
C2194       C  0.41043282  0.85824960  0.36855477     0.13680
C2195       C  0.42092948  0.81942458  0.36958281    -0.24010
H2196       H  0.46374079  0.87631315  0.37487598     0.14970
H2197       H  0.33825186  0.91323266  0.36285992     0.15000
C2198       C  0.38027664  0.96997040  0.37270295    -0.23960
H2199       H  0.44998304  0.81582732  0.37317079     0.05210
H2200       H  0.41307176  0.80669606  0.34442842     0.08440
H2201       H  0.40758935  0.80571365  0.39178674     0.08440
H2202       H  0.39195255  0.98631966  0.35143417     0.08420
H2203       H  0.38906671  0.98045146  0.39857595     0.08420
H2204       H  0.35103262  0.97313517  0.37088638     0.05200
C2205       C  0.87841679  0.30460830  0.45382132    -0.20610
C2206       C  0.84654073  0.31596633  0.46924927    -0.07170
C2207       C  0.84868066  0.33327757  0.50224187     0.13690
C2208       C  0.88195369  0.33696781  0.51912421    -0.20660
C2209       C  0.91306306  0.32369460  0.50418387    -0.07180
C2210       C  0.91146102  0.31011992  0.46988730     0.13680
C2211       C  0.94474023  0.30228912  0.44960883    -0.24010
H2212       H  0.87756267  0.29225926  0.42843993     0.14970
H2213       H  0.88419526  0.35041338  0.54394736     0.15000
C2214       C  0.81580923  0.34759302  0.51949464    -0.23960
H2215       H  0.94479787  0.27440939  0.44014423     0.05210
H2216       H  0.96913090  0.30699941  0.46520032     0.08440
H2217       H  0.94652535  0.32105062  0.42713181     0.08440
H2218       H  0.79700626  0.32545832  0.52405217     0.08420
H2219       H  0.80284838  0.36812208  0.50247292     0.08420
H2220       H  0.82190847  0.36007421  0.54522020     0.05200
C2221       C  0.86014729  0.41498228  0.39218196    -0.20610
C2222       C  0.85861665  0.37883115  0.38372735    -0.07170
C2223       C  0.89083725  0.36098658  0.37502428     0.13690
C2224       C  0.92269155  0.38003934  0.37431122    -0.20660
C2225       C  0.92434772  0.41623423  0.38327459    -0.07180
C2226       C  0.89219415  0.43364369  0.39261769     0.13680
C2227       C  0.89067885  0.47204461  0.40268798    -0.24010
H2228       H  0.83590680  0.42840967  0.39991766     0.14970
H2229       H  0.94668790  0.36626488  0.36643423     0.15000
C2230       C  0.89351162  0.32189886  0.36674580    -0.23960
H2231       H  0.86367886  0.48072485  0.41052352     0.05210
H2232       H  0.89825783  0.48869785  0.37976902     0.08440
H2233       H  0.90860112  0.47618754  0.42559745     0.08440
H2234       H  0.90006829  0.31804814  0.33875453     0.08420
H2235       H  0.86945892  0.30731744  0.37338782     0.08420
H2236       H  0.91518243  0.30892020  0.38174107     0.05200
C2237       C  0.37117259  0.30399072  0.96238872    -0.20610
C2238       C  0.38794810  0.31570670  0.93165190    -0.07170
C2239       C  0.42356271  0.32707336  0.93439531     0.13690
C2240       C  0.44172247  0.32433334  0.96708952    -0.20660
C2241       C  0.42462544  0.31265884  0.99798126    -0.07180
C2242       C  0.38833889  0.30312698  0.99544771     0.13680
C2243       C  0.36733296  0.29094563  0.02704170    -0.24010
H2244       H  0.34398278  0.29542700  0.96037186     0.14970
H2245       H  0.46949019  0.33133415  0.96848004     0.15000
C2246       C  0.44254153  0.34141306  0.90262960    -0.23960
H2247       H  0.34008699  0.28269597  0.01968843     0.05210
H2248       H  0.36521722  0.31299738  0.04624347     0.08440
H2249       H  0.38005486  0.26758308  0.04000698     0.08440
H2250       H  0.42910627  0.36597153  0.89272921     0.08420
H2251       H  0.44255362  0.32120527  0.88144949     0.08420
H2252       H  0.47048718  0.34811543  0.90892479     0.05200
C2253       C  0.31704559  0.40926393  0.99485415    -0.20610
C2254       C  0.32448443  0.44459065  0.98602759    -0.07170
C2255       C  0.32399958  0.45398360  0.94969303     0.13690
C2256       C  0.31506211  0.42899535  0.92381716    -0.20660
C2257       C  0.30715828  0.39377596  0.93270903    -0.07180
C2258       C  0.30760097  0.38427853  0.96911839     0.13680
C2259       C  0.29866975  0.34784946  0.98236572    -0.24010
H2260       H  0.31547160  0.40170925  0.02245557     0.14970
H2261       H  0.31712346  0.43620495  0.89618499     0.15000
C2262       C  0.33458702  0.49033305  0.93799325    -0.23960
H2263       H  0.27639991  0.34961227  0.00088991     0.05210
H2264       H  0.32126803  0.33750941  0.99789243     0.08440
H2265       H  0.29175138  0.32924103  0.96107449     0.08440
H2266       H  0.36269377  0.49339797  0.94583841     0.08420
H2267       H  0.31757644  0.51091818  0.95025862     0.08420
H2268       H  0.33265221  0.49387953  0.90895233     0.05200
C2269       C  0.70210161  0.84574698  0.66673240    -0.20610
C2270       C  0.71323792  0.85360035  0.70140309    -0.07170
C2271       C  0.71709407  0.89048538  0.70963048     0.13690
C2272       C  0.70803114  0.91716456  0.68505941    -0.20660
C2273       C  0.69901809  0.90928568  0.65042085    -0.07180
C2274       C  0.69583989  0.87295117  0.64115517     0.13680
C2275       C  0.68421830  0.86314370  0.60454396    -0.24010
H2276       H  0.69689069  0.81825788  0.66005061     0.14970
H2277       H  0.71182396  0.94484340  0.69220264     0.15000
C2278       C  0.73209889  0.90397153  0.74343183    -0.23960
H2279       H  0.68306556  0.83380308  0.60118221     0.05210
H2280       H  0.70279438  0.87406937  0.58491899     0.08440
H2281       H  0.65745141  0.87451190  0.59915631     0.08440
H2282       H  0.74189723  0.88222230  0.76046514     0.08420
H2283       H  0.71208275  0.92082153  0.75646710     0.08420
H2284       H  0.75456431  0.92184882  0.73794499     0.05200
C2285       C  0.59786968  0.84750525  0.76623845    -0.20610
C2286       C  0.63217650  0.85097350  0.78084306    -0.07170
C2287       C  0.64420003  0.88584503  0.78659918     0.13690
C2288       C  0.62459148  0.91580909  0.77562626    -0.20660
C2289       C  0.58970266  0.91271714  0.76379310    -0.07180
C2290       C  0.57611232  0.87784707  0.75907407     0.13680
C2291       C  0.53899143  0.87285671  0.74542353    -0.24010
H2292       H  0.58860203  0.82118697  0.75939874     0.14970
H2293       H  0.63499611  0.94210427  0.78087739     0.15000
C2294       C  0.67688227  0.89113680  0.80736503    -0.23960
H2295       H  0.53237947  0.84420057  0.74287242     0.05210
H2296       H  0.53617948  0.88574417  0.71910837     0.08440
H2297       H  0.51970495  0.88513877  0.76352326     0.08440
H2298       H  0.69943739  0.87677772  0.79638089     0.08420
H2299       H  0.67143485  0.87907250  0.83310847     0.08420
H2300       H  0.68380731  0.91964162  0.80930269     0.05200
C2301       C  0.85498685  0.59617954  0.78597090    -0.20610
C2302       C  0.86149759  0.62411791  0.76259533    -0.07170
C2303       C  0.89360143  0.62042342  0.74206962     0.13690
C2304       C  0.92184875  0.59885894  0.75486425    -0.20660
C2305       C  0.91639840  0.57357530  0.78117839    -0.07180
C2306       C  0.88069236  0.56923384  0.79264621     0.13680
C2307       C  0.86855377  0.53532920  0.80969658    -0.24010
H2308       H  0.82909379  0.59459462  0.79796346     0.14970
H2309       H  0.94766321  0.60011605  0.74264644     0.15000
C2310       C  0.89786721  0.63335553  0.70461006    -0.23960
H2311       H  0.83923378  0.53442332  0.81183510     0.05210
H2312       H  0.87948385  0.53298431  0.83666247     0.08440
H2313       H  0.87694995  0.51241657  0.79346010     0.08440
H2314       H  0.89546758  0.66214002  0.70208486     0.08420
H2315       H  0.87800128  0.62022226  0.68748118     0.08420
H2316       H  0.92422082  0.62633170  0.69370710     0.05200
C2317       C  0.84786369  0.73718209  0.67212556    -0.20610
C2318       C  0.85518213  0.72525308  0.70605637    -0.07170
C2319       C  0.89062728  0.72480792  0.71900937     0.13690
C2320       C  0.91821800  0.73020819  0.69547966    -0.20660
C2321       C  0.91128538  0.73891076  0.66033543    -0.07180
C2322       C  0.87537919  0.74645341  0.64962171     0.13680
C2323       C  0.86492047  0.76617303  0.61611018    -0.24010
H2324       H  0.82049118  0.73935376  0.66338479     0.14970
H2325       H  0.94538785  0.72754474  0.70470010     0.15000
C2326       C  0.90029098  0.71466285  0.75640556    -0.23960
H2327       H  0.83573576  0.76943401  0.61337033     0.05210
H2328       H  0.87403138  0.75203848  0.59252200     0.08440
H2329       H  0.87619965  0.79339870  0.61645131     0.08440
H2330       H  0.92872000  0.71946461  0.76215058     0.08420
H2331       H  0.88389728  0.72959188  0.77513351     0.08420
H2332       H  0.89637223  0.68624544  0.76140652     0.05200
C2333       C  0.60971976  0.71802021  0.98847128    -0.20610
C2334       C  0.57498042  0.71643226  0.97704794    -0.07170
C2335       C  0.56786231  0.71367701  0.94029823     0.13690
C2336       C  0.59603536  0.71392174  0.91624766    -0.20660
C2337       C  0.63090211  0.71893673  0.92779781    -0.07180
C2338       C  0.63702339  0.72156540  0.96472740     0.13680
C2339       C  0.67236450  0.72634000  0.98097504    -0.24010
H2340       H  0.61572352  0.71992840  0.01640664     0.14970
H2341       H  0.59105775  0.70912642  0.88852786     0.15000
C2342       C  0.53109614  0.70834448  0.92635272    -0.23960
H2343       H  0.69108572  0.73520975  0.96108022     0.05210
H2344       H  0.67969817  0.70079014  0.99394980     0.08440
H2345       H  0.67150681  0.74718754  0.00148595     0.08440
H2346       H  0.51476977  0.73270328  0.92994342     0.08420
H2347       H  0.51921541  0.68529660  0.94030076     0.08420
H2348       H  0.53100249  0.70251163  0.89770680     0.05200
C2349       C  0.69701421  0.60500116  0.94809513    -0.20610
C2350       C  0.71442401  0.63782579  0.94340722    -0.07170
C2351       C  0.73257308  0.65241029  0.97299968     0.13690
C2352       C  0.73644227  0.63204636  0.00354719    -0.20660
C2353       C  0.71983323  0.59903863  0.00793044    -0.07180
C2354       C  0.69791586  0.58647501  0.98044334     0.13680
C2355       C  0.67290834  0.55596664  0.98570679    -0.24010
H2356       H  0.68051471  0.59512213  0.92684500     0.14970
H2357       H  0.75226883  0.64305250  0.02474447     0.15000
C2358       C  0.74627031  0.68994705  0.97582693    -0.23960
H2359       H  0.65538032  0.55211398  0.96241422     0.05210
H2360       H  0.65584846  0.56120705  0.00880209     0.08440
H2361       H  0.68768579  0.53103830  0.98994855     0.08440
H2362       H  0.73789979  0.70680163  0.95355052     0.08420
H2363       H  0.77532278  0.69040134  0.97862415     0.08420
H2364       H  0.73684075  0.70259757  0.00034012     0.05200
loop_ 
_geom_bond_atom_site_label_1 
_geom_bond_atom_site_label_2 
_geom_bond_distance 
_geom_bond_site_symmetry_2 
_ccdc_geom_bond_type 
C1            C2   1.369       .  A
C1            C6   1.413       .  A
C1         C2350   1.490       .  S
C2            C3   1.374       .  A
C2            H7   1.089       .  S
C3            C4   1.423       .  A
C3         C2337   1.483       .  S
C4            C5   1.440       .  A
C4            H8   1.074       .  S
C5            C6   1.420       .  A
C5           C29   1.567       .  S
C6            H9   1.064       .  S
C10          C11   1.454       .  A
C10          C15   1.382       .  A
C10        C2302   1.540       .  S
C11          C12   1.461       .  A
C11          H16   1.072       .  S
C12          C13   1.407       .  A
C12          C33   1.566       .  S
C13          C14   1.383       .  A
C13          H17   1.072       .  S
C14          C15   1.378       .  A
C14        C2318   1.461       .  S
C15          H18   1.075       .  S
C19          C20   1.444       .  A
C19          C24   1.446       .  A
C19          C31   1.590       .  S
C20          C21   1.426       .  A
C20          H25   1.070       .  S
C21          C22   1.376       .  A
C21        C2270   1.514       .  S
C22          C23   1.383       .  A
C22          H26   1.088       .  S
C23          C24   1.440       .  A
C23        C2286   1.505       .  S
C24          H27   1.079       .  S
C28          C29   1.483       .  A
C28          C33   1.435       .  A
C28          C88   1.571       .  S
C29          C30   1.464       .  A
C30          C31   1.435       .  A
C30         C233   1.563       .  S
C31          C32   1.456       .  A
C32          C33   1.453       .  A
C32          C70   1.545       .  S
C34          C35   1.426       .  A
C34          C39   1.373       .  A
C34        C2238   1.498       .  S
C35          C36   1.428       .  A
C35          H40   1.065       .  S
C36          C37   1.439       .  A
C36         C687   1.572       .  S
C37          C38   1.419       .  A
C37          H41   1.075       .  S
C38          C39   1.381       .  A
C38        C2257   1.488       .  S
C39          H42   1.088       .  S
C43          C44   1.376       .  A
C43          C48   1.404       .  A
C43        C2222   1.494       .  S
C44          C45   1.383       .  A
C44          H49   1.087       .  S
C45          C46   1.430       .  A
C45        C2206   1.492       .  S
C46          C47   1.436       .  A
C46          H50   1.076       .  S
C47          C48   1.411       .  A
C47         C469   1.556       .  S
C48          H51   1.046       .  S
C52          C53   1.395       .  A
C52          C57   1.366       .  A
C52        C2193   1.457       .  S
C53          C54   1.416       .  A
C53          H58   1.079       .  S
C54          C55   1.439       .  A
C54         C251   1.531       .  S
C55          C56   1.423       .  A
C55          H59   1.082       .  S
C56          C57   1.376       .  A
C56        C2174   1.487       .  S
C57          H60   1.086       .  S
C61          C62   1.430       .  A
C61          C66   1.447       .  A
C61         C399   1.581       .  S
C62          C63   1.420       .  A
C62          H67   1.056       .  S
C63          C64   1.378       .  A
C63        C2161   1.516       .  S
C64          C65   1.388       .  A
C64          H68   1.086       .  S
C65          C66   1.435       .  A
C65        C2142   1.515       .  S
C66          H69   1.076       .  S
C70          C71   1.404       .  A
C70          C75   1.455       .  A
C71          C72   1.406       .  A
C71          H76   1.077       .  S
C72          C73   1.382       .  A
C72        C2110   1.456       .  S
C73          C74   1.377       .  A
C73          H77   1.085       .  S
C74          C75   1.448       .  A
C74        C2126   1.536       .  S
C75          H78   1.077       .  S
C79          C80   1.419       .  A
C79          C84   1.448       .  A
C79         C617   1.553       .  S
C80          C81   1.396       .  A
C80          H85   1.079       .  S
C81          C82   1.388       .  A
C81        C2094   1.472       .  S
C82          C83   1.391       .  A
C82          H86   1.085       .  S
C83          C84   1.436       .  A
C83        C2078   1.520       .  S
C84          H87   1.077       .  S
C88          C89   1.415       .  A
C88          C93   1.443       .  A
C89          C90   1.410       .  A
C89          H94   1.040       .  S
C90          C91   1.372       .  A
C90        C2062   1.503       .  S
C91          C92   1.384       .  A
C91          H95   1.088       .  S
C92          C93   1.428       .  A
C92        C2046   1.490       .  S
C93          H96   1.078       .  S
C97          C98   1.403       .  A
C97         C102   1.386       .  A
C97        C2014   1.474       .  S
C98          C99   1.422       .  A
C98         H103   1.075       .  S
C99         C100   1.427       .  A
C99         C252   1.538       .  S
C100        C101   1.418       .  A
C100        H104   1.072       .  S
C101        C102   1.385       .  A
C101       C2033   1.497       .  S
C102        H105   1.082       .  S
C106        C107   1.377       .  A
C106        C111   1.432       .  A
C106       C2001   1.513       .  S
C107        C108   1.382       .  A
C107        H112   1.087       .  S
C108        C109   1.420       .  A
C108       C1985   1.492       .  S
C109        C110   1.429       .  A
C109        H113   1.071       .  S
C110        C111   1.437       .  A
C110        C163   1.575       .  S
C111        H114   1.063       .  S
O115        C123   1.324       .  A
O115       Co135   2.162       .  S
O116        C124   1.316       .  A
O116       Co136   2.130       .  S
O117        C125   1.289       .  A
O117       Co137   2.065       .  S
O118        C126   1.302       .  A
O118       Co138   2.109   1_655  S
O119        C125   1.279       .  A
O119       Co136   1.926       .  S
O120        C126   1.279       .  A
O120       Co135   1.923       .  S
O121        C124   1.264       .  A
O121       Co138   1.840       .  S
O122        C123   1.253   1_455  A
O122       Co137   1.824       .  S
C123       C2129   1.501       .  S
C124       C2017   1.482       .  S
C125       C1982   1.489       .  S
C126       C2158   1.513       .  S
O127        C140   1.254       .  A
O127       Co135   2.010       .  S
O128        C141   1.251       .  A
O128       Co136   1.988       .  S
O129        C142   1.280       .  A
O129       Co137   2.027   1_655  S
O130        C143   1.271       .  A
O130       Co138   2.021       .  S
O131        C143   1.244       .  A
O131       Co136   1.927       .  S
O132        C142   1.239       .  A
O132       Co135   1.890       .  S
O133        C140   1.252       .  A
O133       Co138   1.937   1_655  S
O134        C141   1.250       .  A
O134       Co137   1.969       .  S
Co135       O139   2.047   1_655  S
Co136       O139   2.058       .  S
Co137       O139   1.953       .  S
Co138       O139   1.963       .  S
C140       C1966   1.469       .  S
C141       C1934   1.494       .  S
C142       C2321   1.473       .  S
C143       C1953   1.486       .  S
C144        C145   1.421       .  A
C144        C149   1.378       .  A
C144       C1918   1.498       .  S
C145        C146   1.438       .  A
C145        H150   1.071       .  S
C146        C147   1.434       .  A
C146        C166   1.568       .  S
C147        C148   1.414       .  A
C147        H151   1.074       .  S
C148        C149   1.378       .  A
C148       C1902   1.487       .  S
C149        H152   1.087       .  S
C153        C154   1.406       .  A
C153        C158   1.384       .  A
C153       C1870   1.487       .  S
C154        C155   1.423       .  A
C154        H159   1.072       .  S
C155        C156   1.432       .  A
C155        C162   1.543       .  S
C156        C157   1.408       .  A
C156        H160   1.076       .  S
C157        C158   1.390       .  A
C157       C1886   1.485       .  S
C158        H161   1.087       .  S
C162        C163   1.458       .  A
C162        C167   1.451       .  A
C163        C164   1.455       .  A
C164        C165   1.433       .  A
C164        C172   1.566       .  S
C165        C166   1.457       .  A
C165        C217   1.534       .  S
C166        C167   1.447       .  A
C167        C224   1.577       .  S
C168        C169   1.385       .  A
C168        C173   1.432       .  A
C168       C1854   1.516       .  S
C169        C170   1.383       .  A
C169        H174   1.082       .  S
C170        C171   1.411       .  A
C170       C1937   1.490       .  S
C171        C172   1.420       .  A
C171        H175   1.071       .  S
C172        C173   1.450       .  A
C173        H176   1.075       .  S
O177        C185   1.246       .  A
O177       Co197   1.979   1_655  S
O178        C186   1.285       .  A
O178       Co198   2.022       .  S
O179        C187   1.290       .  A
O179       Co199   2.035       .  S
O180        C188   1.329       .  A
O180       Co200   2.129       .  S
O181        C187   1.253       .  A
O181       Co198   1.946   1_655  S
O182        C188   1.273       .  A
O182       Co197   1.856       .  S
O183        C186   1.299       .  A
O183       Co200   2.019       .  S
O184        C185   1.267       .  A
O184       Co199   2.001       .  S
C185       C2049   1.471       .  S
C186       C1841   1.488       .  S
C187       C2081   1.502       .  S
C188       C1822   1.493       .  S
O189        C202   1.332       .  A
O189       Co197   2.125       .  S
O190        C203   1.290       .  A
O190       Co198   2.035   1_655  S
O191        C204   1.281       .  A
O191       Co199   2.020       .  S
O192        C205   1.241       .  A
O192       Co200   1.971       .  S
O193        C205   1.263       .  A
O193       Co198   1.999       .  S
O194        C204   1.303       .  A
O194       Co197   2.036   1_655  S
O195        C202   1.272       .  A
O195       Co200   1.859       .  S
O196        C203   1.256       .  A
O196       Co199   1.953       .  S
Co197       O201   2.017       .  S
Co198       O201   2.041       .  S
Co199       O201   2.035   1_655  S
Co200       O201   2.028       .  S
C202       C1857   1.493       .  S
C203       C1793   1.509       .  S
C204       C2305   1.513       .  S
C205       C1809   1.478       .  S
C206        C207   1.384       .  A
C206        C211   1.420       .  A
C206       C1838   1.495       .  S
C207        C208   1.382       .  A
C207        H212   1.088       .  S
C208        C209   1.419       .  A
C208       C1774   1.492       .  S
C209        C210   1.432       .  A
C209        H213   1.076       .  S
C210        C211   1.435       .  A
C210        C692   1.565       .  S
C211        H214   1.076       .  S
C215        C216   1.400       .  A
C215        C220   1.366       .  A
C215       C1758   1.464       .  S
C216        C217   1.408       .  A
C216        H221   1.072       .  S
C217        C218   1.444       .  A
C218        C219   1.426       .  A
C218        H222   1.082       .  S
C219        C220   1.383       .  A
C219       C1825   1.500       .  S
C220        H223   1.085       .  S
C224        C225   1.438       .  A
C224        C229   1.439       .  A
C225        C226   1.424       .  A
C225        H230   1.074       .  S
C226        C227   1.385       .  A
C226       C1742   1.503       .  S
C227        C228   1.383       .  A
C227        H231   1.088       .  S
C228        C229   1.427       .  A
C228       C1726   1.503       .  S
C229        H232   1.077       .  S
C233        C234   1.447       .  A
C233        C238   1.420       .  A
C234        C235   1.446       .  A
C234        H239   1.074       .  S
C235        C236   1.379       .  A
C235       C1710   1.515       .  S
C236        C237   1.379       .  A
C236        H240   1.087       .  S
C237        C238   1.402       .  A
C237       C1694   1.490       .  S
C238        H241   1.068       .  S
C242        C243   1.419       .  A
C242        C247   1.386       .  A
C242       C1681   1.488       .  S
C243        C244   1.432       .  A
C243        H248   1.078       .  S
C244        C245   1.433       .  A
C244        C253   1.552       .  S
C245        C246   1.414       .  A
C245        H249   1.078       .  S
C246        C247   1.381       .  A
C246       C1950   1.489       .  S
C247        H250   1.088       .  S
C251        C252   1.434       .  A
C251        C256   1.442       .  A
C252        C253   1.434       .  A
C253        C254   1.438       .  A
C254        C255   1.429       .  A
C254        C787   1.542       .  S
C255        C256   1.459       .  A
C255        C257   1.540       .  S
C256        C444   1.577       .  S
C257        C258   1.443       .  A
C257        C262   1.415       .  A
C258        C259   1.417       .  A
C258        H263   1.077       .  S
C259        C260   1.389       .  A
C259       C1662   1.506       .  S
C260        C261   1.384       .  A
C260        H264   1.087       .  S
C261        C262   1.400       .  A
C261       C1649   1.478       .  S
C262        H265   1.076       .  S
O266        C274   1.286       .  A
O266       Co286   2.007       .  S
O267        C275   1.276       .  A
O267       Co287   1.952       .  S
O268        C276   1.270       .  A
O268       Co288   1.999       .  S
O269        C277   1.280       .  A
O269       Co289   2.023       .  S
O270        C276   1.277       .  A
O270       Co287   1.993       .  S
O271        C277   1.294       .  A
O271       Co286   2.045       .  S
O272        C275   1.314       .  A
O272       Co289   2.137       .  S
O273        C274   1.259       .  A
O273       Co288   1.947       .  S
C274       C2254   1.480   1_554  S
C275       C1665   1.499       .  S
C276       C1921   1.479   1_554  S
C277       C1633   1.512       .  S
O278        C291   1.260       .  A
O278       Co286   1.982       .  S
O279        C292   1.260       .  A
O279       Co287   1.964       .  S
O280        C293   1.276       .  A
O280       Co288   2.004       .  S
O281        C294   1.285       .  A
O281       Co289   2.055       .  S
O282        C294   1.258       .  A
O282       Co287   1.962       .  S
O283        C293   1.263       .  A
O283       Co286   1.989       .  S
O284        C291   1.290       .  A
O284       Co289   1.997       .  S
O285        C292   1.268       .  A
O285       Co288   1.977       .  S
Co286       O290   2.130       .  S
Co287       O290   2.069       .  S
Co288       O290   2.055       .  S
Co289       O290   1.974       .  S
C291       C1614   1.497       .  S
C292       C1761   1.454       .  S
C293       C1777   1.486       .  S
C294       C1598   1.513       .  S
O295        C303   1.263       .  A
O295       Co315   1.963       .  S
O296        C304   1.257       .  A
O296       Co316   2.000       .  S
O297        C305   1.269       .  A
O297       Co317   1.966       .  S
O298        C306   1.258       .  A
O298       Co318   1.949   1_655  S
O299        C305   1.303       .  A
O299       Co316   2.082       .  S
O300        C306   1.256       .  A
O300       Co315   1.974       .  S
O301        C304   1.250       .  A
O301       Co318   2.037       .  S
O302        C303   1.271       .  A
O302       Co317   2.017   1_655  S
C303       C2225   1.502       .  S
C304       C1678   1.501       .  S
C305       C1537   1.497       .  S
C306       C1582   1.468       .  S
O307        C320   1.269       .  A
O307       Co315   2.009       .  S
O308        C321   1.243       .  A
O308       Co316   1.966       .  S
O309        C322   1.251       .  A
O309       Co317   1.952   1_655  S
O310        C323   1.273       .  A
O310       Co318   1.946       .  S
O311        C323   1.279       .  A
O311       Co316   1.986       .  S
O312        C322   1.264       .  A
O312       Co315   2.006       .  S
O313        C320   1.280       .  A
O313       Co318   1.998   1_655  S
O314        C321   1.252       .  A
O314       Co317   1.966       .  S
Co315       O319   2.076   1_655  S
Co316       O319   2.057       .  S
Co317       O319   2.058       .  S
Co318       O319   2.069       .  S
C320       C1505   1.521       .  S
C321       C1553   1.500       .  S
C322       C1521   1.485       .  S
C323       C1566   1.474       .  S
C324        C325   1.448       .  A
C324        C329   1.428       .  A
C324        C824   1.559       .  S
C325        C326   1.427       .  A
C325        H330   1.079       .  S
C326        C327   1.374       .  A
C326       C1617   1.502       .  S
C327        C328   1.363       .  A
C327        H331   1.085       .  S
C328        C329   1.409       .  A
C328       C1550   1.475       .  S
C329        H332   1.073       .  S
C333        C334   1.391       .  A
C333        C338   1.436       .  A
C333       C1486   1.502       .  S
C334        C335   1.381       .  A
C334        H339   1.088       .  S
C335        C336   1.402       .  A
C335       C1518   1.493       .  S
C336        C337   1.408       .  A
C336        H340   1.062       .  S
C337        C338   1.449       .  A
C337        C470   1.559       .  S
C338        H341   1.079       .  S
C342        C343   1.376       .  A
C342        C347   1.426       .  A
C342       C1502   1.520       .  S
C343        C344   1.390       .  A
C343        H348   1.087       .  S
C344        C345   1.414       .  A
C344       C1470   1.474       .  S
C345        C346   1.425       .  A
C345        H349   1.076       .  S
C346        C347   1.423       .  A
C346        C401   1.561       .  S
C347        H350   1.057       .  S
O351        C359   1.251       .  A
O351       Co371   1.977       .  S
O352        C360   1.254       .  A
O352       Co372   1.935       .  S
O353        C361   1.267       .  A
O353       Co373   1.959       .  S
O354        C362   1.265       .  A
O354       Co374   1.855       .  S
O355        C361   1.280       .  A
O355       Co372   1.998       .  S
O356        C362   1.308       .  A
O356       Co371   2.127       .  S
O357        C360   1.261       .  A
O357       Co374   2.009       .  S
O358        C359   1.251       .  A
O358       Co373   1.978       .  S
C359       C2065   1.500       .  S
C360       C1489   1.501       .  S
C361       C1473   1.470       .  S
C362       C2097   1.467       .  S
O363        C376   1.255       .  A
O363       Co371   1.839       .  S
O364        C377   1.238       .  A
O364       Co372   1.914       .  S
O365        C378   1.270       .  A
O365       Co373   1.848       .  S
O366        C379   1.265       .  A
O366       Co374   1.997       .  S
O367        C379   1.253       .  A
O367       Co372   1.956       .  S
O368        C378   1.305       .  A
O368       Co371   2.106       .  S
O369        C376   1.314       .  A
O369       Co374   2.127       .  S
O370        C377   1.266       .  A
O370       Co373   2.026       .  S
Co371       O375   2.070       .  S
Co372       O375   2.056       .  S
Co373       O375   1.911       .  S
Co374       O375   2.059       .  S
C376       C1454   1.505   1_554  S
C377       C1422   1.471       .  S
C378       C2353   1.485       .  S
C379       C1438   1.493       .  S
C380        C381   1.430       .  A
C380        C385   1.430       .  A
C380        C398   1.541       .  S
C381        C382   1.412       .  A
C381        H386   1.077       .  S
C382        C383   1.386       .  A
C382       C1406   1.483       .  S
C383        C384   1.387       .  A
C383        H387   1.087       .  S
C384        C385   1.404       .  A
C384       C1390   1.487       .  S
C385        H388   1.077       .  S
C389        C390   1.383       .  A
C389        C394   1.408       .  A
C389       C1585   1.485       .  S
C390        C391   1.375       .  A
C390        H395   1.088       .  S
C391        C392   1.424       .  A
C391       C1969   1.493       .  S
C392        C393   1.433       .  A
C392        H396   1.072       .  S
C393        C394   1.427       .  A
C393        C400   1.558       .  S
C394        H397   1.069       .  S
C398        C399   1.443       .  A
C398        C403   1.444       .  A
C399        C400   1.462       .  A
C400        C401   1.463       .  A
C401        C402   1.443       .  A
C402        C403   1.437       .  A
C402        C408   1.561       .  S
C403        C455   1.550       .  S
C404        C405   1.377       .  A
C404        C409   1.419       .  A
C404       C1374   1.505       .  S
C405        C406   1.383       .  A
C405        H410   1.087       .  S
C406        C407   1.420       .  A
C406       C1425   1.487       .  S
C407        C408   1.434       .  A
C407        H411   1.078       .  S
C408        C409   1.436       .  A
C409        H412   1.072       .  S
O413        C421   1.254       .  A
O413       Co433   1.850       .  S
O414        C422   1.263       .  A
O414       Co434   1.961       .  S
O415        C423   1.254       .  A
O415       Co435   1.983       .  S
O416        C424   1.265       .  A
O416       Co436   1.992       .  S
O417        C423   1.267       .  A
O417       Co434   1.983       .  S
O418        C424   1.280       .  A
O418       Co433   2.012       .  S
O419        C422   1.268       .  A
O419       Co436   2.021       .  S
O420        C421   1.307       .  A
O420       Co435   2.146       .  S
C421       C1697   1.483       .  S
C422       C1358   1.498       .  S
C423       C1729   1.509       .  S
C424       C1345   1.515       .  S
O425        C438   1.252       .  A
O425       Co433   1.989       .  S
O426        C439   1.262       .  A
O426       Co434   1.984       .  S
O427        C440   1.253   1_556  A
O427       Co435   1.856   1_556  S
O428        C441   1.261       .  A
O428       Co436   1.964       .  S
O429        C441   1.266       .  A
O429       Co434   1.991       .  S
O430        C440   1.309       .  A
O430       Co433   2.133       .  S
O431        C438   1.262       .  A
O431       Co436   1.979       .  S
O432        C439   1.268       .  A
O432       Co435   1.990       .  S
Co433       O437   2.040       .  S
Co434       O437   2.097       .  S
Co435       O437   2.050       .  S
Co436       O437   2.103       .  S
C438       C1377   1.515       .  S
C439       C1905   1.495       .  S
C440       C2334   1.470   1_554  S
C441       C1646   1.483       .  S
C442        C443   1.413       .  A
C442        C447   1.385       .  A
C442       C1361   1.492       .  S
C443        C444   1.419       .  A
C443        H448   1.067       .  S
C444        C445   1.452       .  A
C445        C446   1.434       .  A
C445        H449   1.078       .  S
C446        C447   1.387       .  A
C446       C1329   1.519       .  S
C447        H450   1.087       .  S
C451        C452   1.385       .  A
C451        C456   1.417       .  A
C451       C1310   1.478       .  S
C452        C453   1.384       .  A
C452        H457   1.086       .  S
C453        C454   1.416       .  A
C453       C1342   1.503       .  S
C454        C455   1.427       .  A
C454        H458   1.068       .  S
C455        C456   1.423       .  A
C456        H459   1.077       .  S
C460        C461   1.423       .  A
C460        C465   1.426       .  A
C460        C471   1.544       .  S
C461        C462   1.403       .  A
C461        H466   1.069       .  S
C462        C463   1.386       .  A
C462       C1441   1.482       .  S
C463        C464   1.389       .  A
C463        H467   1.087       .  S
C464        C465   1.415       .  A
C464       C1294   1.487       .  S
C465        H468   1.079       .  S
C469        C470   1.448       .  A
C469        C474   1.447       .  A
C470        C471   1.409       .  A
C471        C472   1.436       .  A
C472        C473   1.438       .  A
C472        C778   1.517       .  S
C473        C474   1.473       .  A
C473        C475   1.582       .  S
C474        C662   1.545       .  S
C475        C476   1.449       .  A
C475        C480   1.423       .  A
C476        C477   1.433       .  A
C476        H481   1.062       .  S
C477        C478   1.384       .  A
C477       C1278   1.523       .  S
C478        C479   1.375       .  A
C478        H482   1.086       .  S
C479        C480   1.419       .  A
C479       C1262   1.500       .  S
C480        H483   1.061       .  S
O484        C492   1.266       .  A
O484       Co504   1.987   1_565  S
O485        C493   1.280       .  A
O485       Co505   1.981   1_545  S
O486        C494   1.265       .  A
O486       Co506   1.974       .  S
O487        C495   1.315       .  A
O487       Co507   2.177       .  S
O488        C494   1.271       .  A
O488       Co505   1.983       .  S
O489        C495   1.268       .  A
O489       Co504   1.862       .  S
O490        C493   1.300       .  A
O490       Co507   2.055       .  S
O491        C492   1.255       .  A
O491       Co506   1.937       .  S
C492       C2190   1.455       .  S
C493       C1281   1.506       .  S
C494       C1409   1.468       .  S
C495       C1246   1.480       .  S
O496        C509   1.311       .  A
O496       Co504   2.139       .  S
O497        C510   1.270       .  A
O497       Co505   1.985       .  S
O498        C511   1.277       .  A
O498       Co506   1.971       .  S
O499        C512   1.287       .  A
O499       Co507   2.051       .  S
O500        C512   1.247       .  A
O500       Co505   1.921   1_545  S
O501        C511   1.301       .  A
O501       Co504   2.097   1_565  S
O502        C509   1.282       .  A
O502       Co507   1.912       .  S
O503        C510   1.280       .  A
O503       Co506   1.998       .  S
Co504       O508   1.939   1_545  S
Co505       O508   1.988       .  S
Co506       O508   2.017       .  S
Co507       O508   1.961   1_545  S
C509       C1233   1.503       .  S
C510       C1313   1.467       .  S
C511       C1326   1.525       .  S
C512       C1217   1.492       .  S
O513        C521   1.299       .  A
O513       Co533   2.128       .  S
O514        C522   1.268       .  A
O514       Co534   1.997       .  S
O515        C523   1.283       .  A
O515       Co535   1.995       .  S
O516        C524   1.281       .  A
O516       Co536   2.011       .  S
O517        C523   1.263       .  A
O517       Co534   1.964       .  S
O518        C524   1.267       .  A
O518       Co533   1.999       .  S
O519        C522   1.278       .  A
O519       Co536   2.002       .  S
O520        C521   1.265       .  A
O520       Co535   1.892       .  S
C521       C2241   1.501   1_554  S
C522       C1297   1.483       .  S
C523       C1153   1.479       .  S
C524       C1198   1.500   1_554  S
O525        C538   1.272       .  A
O525       Co533   1.997       .  S
O526        C539   1.279       .  A
O526       Co534   2.023       .  S
O527        C540   1.289       .  A
O527       Co535   2.105       .  S
O528        C541   1.263       .  A
O528       Co536   1.966       .  S
O529        C541   1.266       .  A
O529       Co534   1.970       .  S
O530        C540   1.273       .  A
O530       Co533   1.858       .  S
O531        C538   1.258       .  A
O531       Co536   1.968       .  S
O532        C539   1.256       .  A
O532       Co535   1.979       .  S
Co533       O537   1.999       .  S
Co534       O537   2.042       .  S
Co535       O537   2.001       .  S
Co536       O537   2.071       .  S
C538       C1121   1.476       .  S
C539       C1169   1.502       .  S
C540       C1134   1.466       .  S
C541       C1182   1.455       .  S
C542        C543   1.384       .  A
C542        C547   1.427       .  A
C542       C1230   1.497       .  S
C543        C544   1.381       .  A
C543        H548   1.088       .  S
C544        C545   1.418       .  A
C544       C1166   1.498       .  S
C545        C546   1.436       .  A
C545        H549   1.075       .  S
C546        C547   1.434       .  A
C546        C828   1.579       .  S
C547        H550   1.066       .  S
C551        C552   1.372       .  A
C551        C556   1.421       .  A
C551       C1105   1.508       .  S
C552        C553   1.378       .  A
C552        H557   1.089       .  S
C553        C554   1.429       .  A
C553       C1137   1.486       .  S
C554        C555   1.443       .  A
C554        H558   1.076       .  S
C555        C556   1.431       .  A
C555        C688   1.583       .  S
C556        H559   1.071       .  S
C560        C561   1.371       .  A
C560        C565   1.425       .  A
C560       C1118   1.495       .  S
C561        C562   1.372       .  A
C561        H566   1.090       .  S
C562        C563   1.414       .  A
C562       C1086   1.476       .  S
C563        C564   1.436       .  A
C563        H567   1.078       .  S
C564        C565   1.446       .  A
C564        C619   1.568       .  S
C565        H568   1.076       .  S
O569        C577   1.289       .  A
O569       Co589   2.021       .  S
O570        C578   1.277       .  A
O570       Co590   1.876       .  S
O571        C579   1.266       .  A
O571       Co591   1.978       .  S
O572        C580   1.262       .  A
O572       Co592   1.850       .  S
O573        C579   1.273       .  A
O573       Co590   1.985       .  S
O574        C580   1.324       .  A
O574       Co589   2.145       .  S
O575        C578   1.300       .  A
O575       Co592   2.116   1_545  S
O576        C577   1.267       .  A
O576       Co591   1.977   1_565  S
C577       C1713   1.497       .  S
C578       C1102   1.477       .  S
C579       C1089   1.464       .  S
C580       C1745   1.502       .  S
O581        C594   1.280       .  A
O581       Co589   1.871       .  S
O582        C595   1.271       .  A
O582       Co590   1.993       .  S
O583        C596   1.273       .  A
O583       Co591   1.998   1_565  S
O584        C597   1.272       .  A
O584       Co592   1.989   1_545  S
O585        C597   1.265       .  A
O585       Co590   2.028       .  S
O586        C596   1.258       .  A
O586       Co589   1.993       .  S
O587        C594   1.318       .  A
O587       Co592   2.095       .  S
O588        C595   1.281       .  A
O588       Co591   2.009       .  S
Co589       O593   2.010   1_565  S
Co590       O593   1.881       .  S
Co591       O593   2.026       .  S
Co592       O593   2.000   1_565  S
C594       C1889   1.464       .  S
C595       C1057   1.482       .  S
C596       C2289   1.482       .  S
C597       C1073   1.501       .  S
C598        C599   1.436       .  A
C598        C603   1.440       .  A
C598        C618   1.576       .  S
C599        C600   1.426       .  A
C599        H604   1.071       .  S
C600        C601   1.380       .  A
C600       C1457   1.497       .  S
C601        C602   1.376       .  A
C601        H605   1.088       .  S
C602        C603   1.428       .  A
C602       C1201   1.501       .  S
C603        H606   1.077       .  S
C607        C608   1.377       .  A
C607        C612   1.402       .  A
C607       C1038   1.493       .  S
C608        C609   1.384       .  A
C608        H613   1.070       .  S
C609        C610   1.446       .  A
C609       C1790   1.531       .  S
C610        C611   1.439       .  A
C610        H614   1.074       .  S
C611        C612   1.427       .  A
C611        C616   1.560       .  S
C612        H615   1.076       .  S
C616        C617   1.446       .  A
C616        C621   1.452       .  A
C617        C618   1.462       .  A
C618        C619   1.453       .  A
C619        C620   1.459       .  A
C620        C621   1.445       .  A
C620        C624   1.552       .  S
C621        C671   1.567       .  S
C622        C623   1.408       .  A
C622        C627   1.384       .  A
C622       C1054   1.483       .  S
C623        C624   1.426       .  A
C623        H628   1.076       .  S
C624        C625   1.436       .  A
C625        C626   1.418       .  A
C625        H629   1.069       .  S
C626        C627   1.386       .  A
C626       C1022   1.498       .  S
C627        H630   1.086       .  S
O631        C639   1.256       .  A
O631       Co651   2.004       .  S
O632        C640   1.268       .  A
O632       Co652   2.057       .  S
O633        C641   1.298       .  A
O633       Co653   2.033       .  S
O634        C642   1.321       .  A
O634       Co654   2.114       .  S
O635        C641   1.267       .  A
O635       Co652   1.939       .  S
O636        C642   1.270       .  A
O636       Co651   1.868       .  S
O637        C640   1.268       .  A
O637       Co654   1.973   1_545  S
O638        C639   1.268       .  A
O638       Co653   1.986   1_565  S
C639       C2273   1.485       .  S
C640       C1265   1.490       .  S
C641       C1025   1.490       .  S
C642       C1393   1.475       .  S
O643        C656   1.317       .  A
O643       Co651   2.121       .  S
O644        C657   1.292       .  A
O644       Co652   2.052       .  S
O645        C658   1.284       .  A
O645       Co653   2.012   1_565  S
O646        C659   1.298       .  A
O646       Co654   2.103   1_545  S
O647        C659   1.285       .  A
O647       Co652   1.878       .  S
O648        C658   1.276       .  A
O648       Co651   1.961       .  S
O649        C656   1.263       .  A
O649       Co654   1.864       .  S
O650        C657   1.250       .  A
O650       Co653   1.916       .  S
Co651       O655   1.999   1_565  S
Co652       O655   1.891       .  S
Co653       O655   1.988       .  S
Co654       O655   1.999   1_565  S
C656       C2145   1.494       .  S
C657        C993   1.518       .  S
C658       C2113   1.449       .  S
C659       C1006   1.459       .  S
C660        C661   1.405       .  A
C660        C665   1.375       .  A
C660       C1009   1.470       .  S
C661        C662   1.416       .  A
C661        H666   1.070       .  S
C662        C663   1.440       .  A
C663        C664   1.413       .  A
C663        H667   1.073       .  S
C664        C665   1.374       .  A
C664        C974   1.484       .  S
C665        H668   1.089       .  S
C669        C670   1.410       .  A
C669        C674   1.374       .  A
C669        C958   1.489       .  S
C670        C671   1.426       .  A
C670        H675   1.077       .  S
C671        C672   1.450       .  A
C672        C673   1.445       .  A
C672        H676   1.078       .  S
C673        C674   1.382       .  A
C673        C990   1.529       .  S
C674        H677   1.082       .  S
C678        C679   1.450       .  A
C678        C683   1.431       .  A
C678        C689   1.616       .  S
C679        C680   1.442       .  A
C679        H684   1.038       .  S
C680        C681   1.364       .  A
C680       C1070   1.535       .  S
C681        C682   1.371       .  A
C681        H685   1.088       .  S
C682        C683   1.425       .  A
C682        C945   1.486       .  S
C683        H686   1.068       .  S
C687        C688   1.469       .  A
C687        C692   1.441       .  A
C688        C689   1.490       .  A
C689        C690   1.499       .  A
C690        C691   1.467       .  A
C690        C769   1.588       .  S
C691        C692   1.439       .  A
C691        C764   1.569       .  S
O693        C701   1.236       .  A
O693       Co713   1.827       .  S
O694        C702   1.257       .  A
O694       Co714   1.953       .  S
O695        C703   1.253       .  A
O695       Co715   2.002       .  S
O696        C704   1.265       .  A
O696       Co716   1.968   1_565  S
O697        C703   1.262       .  A
O697       Co714   1.971       .  S
O698        C704   1.266       .  A
O698       Co713   1.992       .  S
O699        C702   1.266       .  A
O699       Co716   1.984       .  S
O700        C701   1.318       .  A
O700       Co715   2.170   1_565  S
C701       C2177   1.481       .  S
C702        C942   1.472       .  S
C703        C929   1.533       .  S
C704       C1873   1.487       .  S
O705        C718   1.248       .  A
O705       Co713   1.987       .  S
O706        C719   1.263       .  A
O706       Co714   1.948       .  S
O707        C720   1.239       .  A
O707       Co715   1.814   1_565  S
O708        C721   1.258       .  A
O708       Co716   1.961       .  S
O709        C721   1.265       .  A
O709       Co714   2.007       .  S
O710        C720   1.320       .  A
O710       Co713   2.178       .  S
O711        C718   1.259       .  A
O711       Co716   1.967   1_565  S
O712        C719   1.262       .  A
O712       Co715   1.990       .  S
Co713       O717   2.017   1_565  S
Co714       O717   2.096       .  S
Co715       O717   2.039       .  S
Co716       O717   2.094       .  S
C718       C1998   1.521       .  S
C719        C894   1.478       .  S
C720       C2030   1.479       .  S
C721        C910   1.484       .  S
O722        C730   1.267       .  A
O722       Co742   1.981       .  S
O723        C731   1.266       .  A
O723       Co743   1.971       .  S
O724        C732   1.255       .  A
O724       Co744   1.947       .  S
O725        C733   1.301       .  A
O725       Co745   2.091   1_655  S
O726        C732   1.278       .  A
O726       Co743   2.011       .  S
O727        C733   1.272       .  A
O727       Co742   1.954       .  S
O728        C731   1.284       .  A
O728       Co745   2.084       .  S
O729        C730   1.273       .  A
O729       Co744   2.023   1_655  S
C730        C977   1.478       .  S
C731        C862   1.483       .  S
C732        C878   1.470       .  S
C733        C961   1.485       .  S
O734        C747   1.255       .  A
O734       Co742   1.983       .  S
O735        C748   1.262       .  A
O735       Co743   1.996       .  S
O736        C749   1.269       .  A
O736       Co744   1.994   1_655  S
O737        C750   1.277       .  A
O737       Co745   1.903       .  S
O738        C750   1.304       .  A
O738       Co743   2.113       .  S
O739        C749   1.263       .  A
O739       Co742   1.986       .  S
O740        C747   1.278       .  A
O740       Co745   2.034   1_655  S
O741        C748   1.282       .  A
O741       Co744   2.014       .  S
Co742       O746   2.083   1_655  S
Co743       O746   2.134       .  S
Co744       O746   2.098       .  S
Co745       O746   1.971       .  S
C747       C1041   1.502       .  S
C748        C846   1.512       .  S
C749       C2209   1.471       .  S
C750        C830   1.478       .  S
C751        C752   1.429       .  A
C751        C756   1.436       .  A
C751        C826   1.560       .  S
C752        C753   1.412       .  A
C752        H757   1.078       .  S
C753        C754   1.375       .  A
C753        C897   1.469       .  S
C754        C755   1.371       .  A
C754        H758   1.089       .  S
C755        C756   1.416       .  A
C755        C881   1.487       .  S
C756        H759   1.071       .  S
C760        C761   1.376       .  A
C760        C765   1.416       .  A
C760        C833   1.495       .  S
C761        C762   1.382       .  A
C761        H766   1.088       .  S
C762        C763   1.426       .  A
C762       C1806   1.498       .  S
C763        C764   1.446       .  A
C763        H767   1.077       .  S
C764        C765   1.428       .  A
C765        H768   1.070       .  S
C769        C770   1.419       .  A
C769        C774   1.447       .  A
C770        C771   1.419       .  A
C770        H775   1.058       .  S
C771        C772   1.365       .  A
C771        C913   1.488       .  S
C772        C773   1.372       .  A
C772        H776   1.090       .  S
C773        C774   1.438       .  A
C773        C865   1.498       .  S
C774        H777   1.068       .  S
C778        C779   1.436       .  A
C778        C783   1.403       .  A
C779        C780   1.424       .  A
C779        H784   1.082       .  S
C780        C781   1.383       .  A
C780       C1214   1.487       .  S
C781        C782   1.374       .  A
C781        H785   1.085       .  S
C782        C783   1.389       .  A
C782       C1185   1.447       .  S
C783        H786   1.078       .  S
C787        C788   1.414       .  A
C787        C792   1.439       .  A
C788        C789   1.398       .  A
C788        H793   1.077       .  S
C789        C790   1.389       .  A
C789       C1569   1.466       .  S
C790        C791   1.388       .  A
C790        H794   1.086       .  S
C791        C792   1.428       .  A
C791       C1601   1.516       .  S
C792        H795   1.074       .  S
C796        C797   1.376       .  A
C796        C801   1.431       .  A
C796       C1630   1.507       .  S
C797        C798   1.371       .  A
C797        H802   1.083       .  S
C798        C799   1.411       .  A
C798       C1150   1.477       .  S
C799        C800   1.428       .  A
C799        H803   1.080       .  S
C800        C801   1.449       .  A
C800        C823   1.560       .  S
C801        H804   1.081       .  S
C805        C806   1.439       .  A
C805        C810   1.380       .  A
C805        C926   1.527       .  S
C806        C807   1.443       .  A
C806        H811   1.057       .  S
C807        C808   1.423       .  A
C807        C827   1.577       .  S
C808        C809   1.411       .  A
C808        H812   1.079       .  S
C809        C810   1.387       .  A
C809       C1249   1.472       .  S
C810        H813   1.088       .  S
C814        C815   1.429       .  A
C814        C819   1.441       .  A
C814        C825   1.581       .  S
C815        C816   1.420       .  A
C815        H820   1.076       .  S
C816        C817   1.383       .  A
C816       C1534   1.484       .  S
C817        C818   1.379       .  A
C817        H821   1.088       .  S
C818        C819   1.430       .  A
C818        C849   1.511       .  S
C819        H822   1.069       .  S
C823        C824   1.440       .  A
C823        C828   1.454       .  A
C824        C825   1.459       .  A
C825        C826   1.459       .  A
C826        C827   1.466       .  A
C827        C828   1.464       .  A
C829        C830   1.397       .  A
C829        C834   1.406       .  A
C829        H836   1.085       .  S
C830        C831   1.401       .  A
C831        C832   1.406       .  A
C831        C838   1.496       .  S
C832        C833   1.410       .  A
C832        H837   1.084       .  S
C833        C834   1.430       .  A
C834        C835   1.508       .  S
C835        H839   1.097       .  S
C835        H840   1.096       .  S
C835        H841   1.097       .  S
C838        H842   1.106       .  S
C838        H843   1.110       .  S
C838        H844   1.110       .  S
C845        C846   1.400       .  A
C845        C850   1.413       .  A
C845        H852   1.085       .  S
C846        C847   1.424       .  A
C847        C848   1.417       .  A
C847        C854   1.490       .  S
C848        C849   1.402       .  A
C848        H853   1.084       .  S
C849        C850   1.426       .  A
C850        C851   1.494       .  S
C851        H855   1.105       .  S
C851        H856   1.100       .  S
C851        H857   1.101       .  S
C854        H858   1.109       .  S
C854        H859   1.107       .  S
C854        H860   1.111       .  S
C861        C862   1.387       .  A
C861        C866   1.389       .  A
C861        H868   1.086       .  S
C862        C863   1.418       .  A
C863        C864   1.418       .  A
C863        C870   1.495       .  S
C864        C865   1.410       .  A
C864        H869   1.084       .  S
C865        C866   1.421       .  A
C866        C867   1.486       .  S
C867        H871   1.107       .  S
C867        H872   1.102       .  S
C867        H873   1.097       .  S
C870        H874   1.107       .  S
C870        H875   1.110       .  S
C870        H876   1.110       .  S
C877        C878   1.385       .  A
C877        C882   1.398       .  A
C877        H884   1.087       .  S
C878        C879   1.415       .  A
C879        C880   1.403       .  A
C879        C886   1.482       .  S
C880        C881   1.396       .  A
C880        H885   1.085       .  S
C881        C882   1.428       .  A
C882        C883   1.487       .  S
C883        H887   1.095       .  S
C883        H888   1.100       .  S
C883        H889   1.100       .  S
C886        H890   1.108       .  S
C886        H891   1.105       .  S
C886        H892   1.111       .  S
C893        C894   1.397       .  A
C893        C898   1.379       .  A
C893        H900   1.086       .  S
C894        C895   1.417       .  A
C895        C896   1.410       .  A
C895        C902   1.503       .  S
C896        C897   1.407       .  A
C896        H901   1.084       .  S
C897        C898   1.420       .  A
C898        C899   1.504       .  S
C899        H903   1.100       .  S
C899        H904   1.096       .  S
C899        H905   1.095       .  S
C902        H906   1.110       .  S
C902        H907   1.101       .  S
C902        H908   1.111       .  S
C909        C910   1.403       .  A
C909        C914   1.398       .  A
C909        H916   1.085       .  S
C910        C911   1.420       .  A
C911        C912   1.404       .  A
C911        C918   1.508       .  S
C912        C913   1.406       .  A
C912        H917   1.084       .  S
C913        C914   1.423       .  A
C914        C915   1.509       .  S
C915        H919   1.106       .  S
C915        H920   1.099       .  S
C915        H921   1.098       .  S
C918        H922   1.109       .  S
C918        H923   1.110       .  S
C918        H924   1.111       .  S
C925        C926   1.400       .  A
C925        C930   1.414       .  A
C925        H932   1.079       .  S
C926        C927   1.425       .  A
C927        C928   1.426       .  A
C927        C934   1.504       .  S
C928        C929   1.414       .  A
C928        H933   1.083       .  S
C929        C930   1.431       .  A
C930        C931   1.511       .  S
C931        H935   1.111       .  S
C931        H936   1.104       .  S
C931        H937   1.110       .  S
C934        H938   1.109       .  S
C934        H939   1.111       .  S
C934        H940   1.110       .  S
C941        C942   1.395       .  A
C941        C946   1.392       .  A
C941        H948   1.086       .  S
C942        C943   1.417       .  A
C943        C944   1.404       .  A
C943        C950   1.508       .  S
C944        C945   1.410       .  A
C944        H949   1.084       .  S
C945        C946   1.426       .  A
C946        C947   1.503       .  S
C947        H951   1.088       .  S
C947        H952   1.096       .  S
C947        H953   1.104       .  S
C950        H954   1.107       .  S
C950        H955   1.110       .  S
C950        H956   1.111       .  S
C957        C958   1.413       .  A
C957        C962   1.401       .  A
C957        H964   1.085       .  S
C958        C959   1.408       .  A
C959        C960   1.406       .  A
C959        C966   1.508       .  S
C960        C961   1.410       .  A
C960        H965   1.077       .  S
C961        C962   1.414       .  A
C962        C963   1.512       .  S
C963        H967   1.111       .  S
C963        H968   1.110       .  S
C963        H969   1.103       .  S
C966        H970   1.110       .  S
C966        H971   1.107       .  S
C966        H972   1.110       .  S
C973        C974   1.405       .  A
C973        C978   1.407       .  A
C973        H980   1.085       .  S
C974        C975   1.424       .  A
C975        C976   1.391       .  A
C975        C982   1.490       .  S
C976        C977   1.386       .  A
C976        H981   1.085       .  S
C977        C978   1.409       .  A
C978        C979   1.493       .  S
C979        H983   1.111       .  S
C979        H984   1.108       .  S
C979        H985   1.107       .  S
C982        H986   1.102       .  S
C982        H987   1.098       .  S
C982        H988   1.107       .  S
C989        C990   1.435       .  A
C989        C994   1.417       .  A
C989        H996   1.084       .  S
C990        C991   1.401       .  A
C991        C992   1.408       .  A
C991        C998   1.502       .  S
C992        C993   1.432       .  A
C992        H997   1.082       .  S
C993        C994   1.402       .  A
C994        C995   1.504       .  S
C995        H999   1.111       .  S
C995       H1000   1.110       .  S
C995       H1001   1.110       .  S
C998       H1002   1.105       .  S
C998       H1003   1.110       .  S
C998       H1004   1.107       .  S
C1005      C1006   1.392       .  A
C1005      C1010   1.388       .  A
C1005      H1012   1.086       .  S
C1006      C1007   1.411       .  A
C1007      C1008   1.403       .  A
C1007      C1014   1.504       .  S
C1008      C1009   1.406       .  A
C1008      H1013   1.085       .  S
C1009      C1010   1.425       .  A
C1010      C1011   1.507       .  S
C1011      H1015   1.105       .  S
C1011      H1016   1.093       .  S
C1011      H1017   1.098       .  S
C1014      H1018   1.098       .  S
C1014      H1019   1.110       .  S
C1014      H1020   1.111       .  S
C1021      C1022   1.414       .  A
C1021      C1026   1.397       .  A
C1021      H1028   1.065       .  S
C1022      C1023   1.403       .  A
C1023      C1024   1.407       .  A
C1023      C1030   1.506       .  S
C1024      C1025   1.425       .  A
C1024      H1029   1.084       .  S
C1025      C1026   1.401       .  A
C1026      C1027   1.508       .  S
C1027      H1031   1.108       .  S
C1027      H1032   1.110       .  S
C1027      H1033   1.110       .  S
C1030      H1034   1.108       .  S
C1030      H1035   1.110       .  S
C1030      H1036   1.111       .  S
C1037      C1038   1.393       .  A
C1037      C1042   1.409       .  A
C1037      H1044   1.084       .  S
C1038      C1039   1.428       .  A
C1039      C1040   1.407       .  A
C1039      C1046   1.507       .  S
C1040      C1041   1.400       .  A
C1040      H1045   1.085       .  S
C1041      C1042   1.430       .  A
C1042      C1043   1.499       .  S
C1043      H1047   1.111       .  S
C1043      H1048   1.106       .  S
C1043      H1049   1.096       .  S
C1046      H1050   1.102       .  S
C1046      H1051   1.107       .  S
C1046      H1052   1.105       .  S
C1053      C1054   1.407       .  A
C1053      C1058   1.402       .  A
C1053      H1060   1.084       .  S
C1054      C1055   1.411       .  A
C1055      C1056   1.407       .  A
C1055      C1062   1.507       .  S
C1056      C1057   1.407       .  A
C1056      H1061   1.069       .  S
C1057      C1058   1.412       .  A
C1058      C1059   1.506       .  S
C1059      H1063   1.105       .  S
C1059      H1064   1.105       .  S
C1059      H1065   1.105       .  S
C1062      H1066   1.109       .  S
C1062      H1067   1.110       .  S
C1062      H1068   1.111       .  S
C1069      C1070   1.416       .  A
C1069      C1074   1.413       .  A
C1069      H1076   1.084       .  S
C1070      C1071   1.433       .  A
C1071      C1072   1.414       .  A
C1071      C1078   1.492       .  S
C1072      C1073   1.398       .  A
C1072      H1077   1.086       .  S
C1073      C1074   1.413       .  A
C1074      C1075   1.496       .  S
C1075      H1079   1.111       .  S
C1075      H1080   1.110       .  S
C1075      H1081   1.098       .  S
C1078      H1082   1.094       .  S
C1078      H1083   1.103       .  S
C1078      H1084   1.102       .  S
C1085      C1086   1.406       .  A
C1085      C1090   1.410       .  A
C1085      H1092   1.084       .  S
C1086      C1087   1.420       .  A
C1087      C1088   1.391       .  A
C1087      C1094   1.495       .  S
C1088      C1089   1.388       .  A
C1088      H1093   1.085       .  S
C1089      C1090   1.412       .  A
C1090      C1091   1.496       .  S
C1091      H1095   1.111       .  S
C1091      H1096   1.097       .  S
C1091      H1097   1.110       .  S
C1094      H1098   1.106       .  S
C1094      H1099   1.101       .  S
C1094      H1100   1.094       .  S
C1101      C1102   1.391       .  A
C1101      C1106   1.396       .  A
C1101      H1108   1.087       .  S
C1102      C1103   1.408       .  A
C1103      C1104   1.409       .  A
C1103      C1110   1.502       .  S
C1104      C1105   1.416       .  A
C1104      H1109   1.084       .  S
C1105      C1106   1.442       .  A
C1106      C1107   1.510       .  S
C1107      H1111   1.109       .  S
C1107      H1112   1.079       .  S
C1107      H1113   1.093       .  S
C1110      H1114   1.110       .  S
C1110      H1115   1.102       .  S
C1110      H1116   1.111       .  S
C1117      C1118   1.410       .  A
C1117      C1122   1.412   1_556  A
C1117      H1124   1.084       .  S
C1118      C1119   1.427       .  A
C1119      C1120   1.402       .  A
C1119      C1126   1.497       .  S
C1120      C1121   1.393   1_556  A
C1120      H1125   1.085       .  S
C1121      C1122   1.408       .  A
C1122      C1123   1.495       .  S
C1123      H1127   1.111       .  S
C1123      H1128   1.110       .  S
C1123      H1129   1.101       .  S
C1126      H1130   1.098       .  S
C1126      H1131   1.105       .  S
C1126      H1132   1.095       .  S
C1133      C1134   1.377   1_556  A
C1133      C1138   1.371       .  A
C1133      H1140   1.087       .  S
C1134      C1135   1.415       .  A
C1135      C1136   1.417   1_554  A
C1135      C1142   1.501       .  S
C1136      C1137   1.413       .  A
C1136      H1141   1.084   1_556  S
C1137      C1138   1.420       .  A
C1138      C1139   1.475       .  S
C1139      H1143   1.102       .  S
C1139      H1144   1.080       .  S
C1139      H1145   1.097       .  S
C1142      H1146   1.100       .  S
C1142      H1147   1.110       .  S
C1142      H1148   1.111       .  S
C1149      C1150   1.394       .  A
C1149      C1154   1.402       .  A
C1149      H1156   1.085       .  S
C1150      C1151   1.422       .  A
C1151      C1152   1.400       .  A
C1151      C1158   1.503       .  S
C1152      C1153   1.399       .  A
C1152      H1157   1.084       .  S
C1153      C1154   1.422       .  A
C1154      C1155   1.496       .  S
C1155      H1159   1.111       .  S
C1155      H1160   1.110       .  S
C1155      H1161   1.107       .  S
C1158      H1162   1.102       .  S
C1158      H1163   1.110       .  S
C1158      H1164   1.107       .  S
C1165      C1166   1.409       .  A
C1165      C1170   1.411       .  A
C1165      H1172   1.081       .  S
C1166      C1167   1.408       .  A
C1167      C1168   1.414       .  A
C1167      C1174   1.505       .  S
C1168      C1169   1.415       .  A
C1168      H1173   1.077       .  S
C1169      C1170   1.416       .  A
C1170      C1171   1.505       .  S
C1171      H1175   1.108       .  S
C1171      H1176   1.099       .  S
C1171      H1177   1.110       .  S
C1174      H1178   1.110       .  S
C1174      H1179   1.110       .  S
C1174      H1180   1.111       .  S
C1181      C1182   1.403       .  A
C1181      C1186   1.389       .  A
C1181      H1188   1.085       .  S
C1182      C1183   1.419       .  A
C1183      C1184   1.389       .  A
C1183      C1190   1.501       .  S
C1184      C1185   1.392       .  A
C1184      H1189   1.085       .  S
C1185      C1186   1.408       .  A
C1186      C1187   1.504       .  S
C1187      H1191   1.109       .  S
C1187      H1192   1.110       .  S
C1187      H1193   1.111       .  S
C1190      H1194   1.108       .  S
C1190      H1195   1.108       .  S
C1190      H1196   1.111       .  S
C1197      C1198   1.411       .  A
C1197      C1202   1.419       .  A
C1197      H1204   1.084       .  S
C1198      C1199   1.422       .  A
C1199      C1200   1.409       .  A
C1199      C1206   1.507   1_556  S
C1200      C1201   1.405       .  A
C1200      H1205   1.084       .  S
C1201      C1202   1.419       .  A
C1202      C1203   1.504       .  S
C1203      H1207   1.111       .  S
C1203      H1208   1.110       .  S
C1203      H1209   1.109       .  S
C1206      H1210   1.106       .  S
C1206      H1211   1.106       .  S
C1206      H1212   1.108       .  S
C1213      C1214   1.386       .  A
C1213      C1218   1.402       .  A
C1213      H1220   1.083       .  S
C1214      C1215   1.429       .  A
C1215      C1216   1.402       .  A
C1215      C1222   1.508       .  S
C1216      C1217   1.393       .  A
C1216      H1221   1.084       .  S
C1217      C1218   1.441       .  A
C1218      C1219   1.511       .  S
C1219      H1223   1.111       .  S
C1219      H1224   1.111       .  S
C1219      H1225   1.100       .  S
C1222      H1226   1.110       .  S
C1222      H1227   1.110       .  S
C1222      H1228   1.111       .  S
C1229      C1230   1.404       .  A
C1229      C1234   1.406       .  A
C1229      H1236   1.081       .  S
C1230      C1231   1.415       .  A
C1231      C1232   1.416       .  A
C1231      C1238   1.505       .  S
C1232      C1233   1.411       .  A
C1232      H1237   1.082       .  S
C1233      C1234   1.421       .  A
C1234      C1235   1.507       .  S
C1235      H1239   1.108       .  S
C1235      H1240   1.110       .  S
C1235      H1241   1.102       .  S
C1238      H1242   1.110       .  S
C1238      H1243   1.110       .  S
C1238      H1244   1.111       .  S
C1245      C1246   1.395       .  A
C1245      C1250   1.381       .  A
C1245      H1252   1.086       .  S
C1246      C1247   1.415       .  A
C1247      C1248   1.410       .  A
C1247      C1254   1.492       .  S
C1248      C1249   1.402       .  A
C1248      H1253   1.084       .  S
C1249      C1250   1.419       .  A
C1250      C1251   1.504       .  S
C1251      H1255   1.102       .  S
C1251      H1256   1.097       .  S
C1251      H1257   1.107       .  S
C1254      H1258   1.099       .  S
C1254      H1259   1.110       .  S
C1254      H1260   1.111       .  S
C1261      C1262   1.405       .  A
C1261      C1266   1.410       .  A
C1261      H1268   1.084       .  S
C1262      C1263   1.423       .  A
C1263      C1264   1.408       .  A
C1263      C1270   1.507       .  S
C1264      C1265   1.402       .  A
C1264      H1269   1.084       .  S
C1265      C1266   1.417       .  A
C1266      C1267   1.502       .  S
C1267      H1271   1.111       .  S
C1267      H1272   1.102       .  S
C1267      H1273   1.110       .  S
C1270      H1274   1.097       .  S
C1270      H1275   1.105       .  S
C1270      H1276   1.111       .  S
C1277      C1278   1.425       .  A
C1277      C1282   1.404       .  A
C1277      H1284   1.079       .  S
C1278      C1279   1.408       .  A
C1279      C1280   1.411       .  A
C1279      C1286   1.503       .  S
C1280      C1281   1.419       .  A
C1280      H1285   1.082       .  S
C1281      C1282   1.408       .  A
C1282      C1283   1.510       .  S
C1283      H1287   1.111       .  S
C1283      H1288   1.109       .  S
C1283      H1289   1.110       .  S
C1286      H1290   1.098       .  S
C1286      H1291   1.110       .  S
C1286      H1292   1.110       .  S
C1293      C1294   1.406       .  A
C1293      C1298   1.404       .  A
C1293      H1300   1.080       .  S
C1294      C1295   1.408       .  A
C1295      C1296   1.410       .  A
C1295      C1302   1.504       .  S
C1296      C1297   1.404       .  A
C1296      H1301   1.069       .  S
C1297      C1298   1.409       .  A
C1298      C1299   1.503       .  S
C1299      H1303   1.107       .  S
C1299      H1304   1.108       .  S
C1299      H1305   1.091       .  S
C1302      H1306   1.110       .  S
C1302      H1307   1.111       .  S
C1302      H1308   1.110       .  S
C1309      C1310   1.403       .  A
C1309      C1314   1.396       .  A
C1309      H1316   1.081       .  S
C1310      C1311   1.412       .  A
C1311      C1312   1.411       .  A
C1311      C1318   1.503       .  S
C1312      C1313   1.409       .  A
C1312      H1317   1.084       .  S
C1313      C1314   1.410       .  A
C1314      C1315   1.504       .  S
C1315      H1319   1.107       .  S
C1315      H1320   1.110       .  S
C1315      H1321   1.097       .  S
C1318      H1322   1.110       .  S
C1318      H1323   1.110       .  S
C1318      H1324   1.111       .  S
C1325      C1326   1.418       .  A
C1325      C1330   1.426       .  A
C1325      H1332   1.082       .  S
C1326      C1327   1.422       .  A
C1327      C1328   1.411       .  A
C1327      C1334   1.510       .  S
C1328      C1329   1.410       .  A
C1328      H1333   1.081       .  S
C1329      C1330   1.417       .  A
C1330      C1331   1.502       .  S
C1331      H1335   1.110       .  S
C1331      H1336   1.109       .  S
C1331      H1337   1.110       .  S
C1334      H1338   1.103       .  S
C1334      H1339   1.110       .  S
C1334      H1340   1.106       .  S
C1341      C1342   1.405       .  A
C1341      C1346   1.410       .  A
C1341      H1348   1.079       .  S
C1342      C1343   1.411       .  A
C1343      C1344   1.416       .  A
C1343      C1350   1.509       .  S
C1344      C1345   1.407       .  A
C1344      H1349   1.066       .  S
C1345      C1346   1.427       .  A
C1346      C1347   1.513       .  S
C1347      H1351   1.109       .  S
C1347      H1352   1.105       .  S
C1347      H1353   1.110       .  S
C1350      H1354   1.110       .  S
C1350      H1355   1.106       .  S
C1350      H1356   1.102       .  S
C1357      C1358   1.412       .  A
C1357      C1362   1.409       .  A
C1357      H1364   1.084       .  S
C1358      C1359   1.419       .  A
C1359      C1360   1.407       .  A
C1359      C1366   1.509       .  S
C1360      C1361   1.406       .  A
C1360      H1365   1.084       .  S
C1361      C1362   1.412       .  A
C1362      C1363   1.506       .  S
C1363      H1367   1.111       .  S
C1363      H1368   1.109       .  S
C1363      H1369   1.110       .  S
C1366      H1370   1.110       .  S
C1366      H1371   1.104       .  S
C1366      H1372   1.111       .  S
C1373      C1374   1.407       .  A
C1373      C1378   1.412       .  A
C1373      H1380   1.084       .  S
C1374      C1375   1.426       .  A
C1375      C1376   1.407       .  A
C1375      C1382   1.503       .  S
C1376      C1377   1.407       .  A
C1376      H1381   1.085       .  S
C1377      C1378   1.416       .  A
C1378      C1379   1.489       .  S
C1379      H1383   1.111       .  S
C1379      H1384   1.110       .  S
C1379      H1385   1.088       .  S
C1382      H1386   1.104       .  S
C1382      H1387   1.098       .  S
C1382      H1388   1.105       .  S
C1389      C1390   1.396       .  A
C1389      C1394   1.413       .  A
C1389      H1396   1.084       .  S
C1390      C1391   1.414       .  A
C1391      C1392   1.379       .  A
C1391      C1398   1.483       .  S
C1392      C1393   1.384       .  A
C1392      H1397   1.086       .  S
C1393      C1394   1.432       .  A
C1394      C1395   1.504       .  S
C1395      H1399   1.111       .  S
C1395      H1400   1.105       .  S
C1395      H1401   1.108       .  S
C1398      H1402   1.109       .  S
C1398      H1403   1.104       .  S
C1398      H1404   1.109       .  S
C1405      C1406   1.407       .  A
C1405      C1410   1.411       .  A
C1405      H1412   1.084       .  S
C1406      C1407   1.419       .  A
C1407      C1408   1.392       .  A
C1407      C1414   1.503       .  S
C1408      C1409   1.394       .  A
C1408      H1413   1.085       .  S
C1409      C1410   1.415       .  A
C1410      C1411   1.504       .  S
C1411      H1415   1.111       .  S
C1411      H1416   1.109       .  S
C1411      H1417   1.110       .  S
C1414      H1418   1.098       .  S
C1414      H1419   1.103       .  S
C1414      H1420   1.105       .  S
C1421      C1422   1.411       .  A
C1421      C1426   1.406       .  A
C1421      H1428   1.085       .  S
C1422      C1423   1.413       .  A
C1423      C1424   1.405       .  A
C1423      C1430   1.505       .  S
C1424      C1425   1.405       .  A
C1424      H1429   1.080       .  S
C1425      C1426   1.415       .  A
C1426      C1427   1.505       .  S
C1427      H1431   1.111       .  S
C1427      H1432   1.110       .  S
C1427      H1433   1.110       .  S
C1430      H1434   1.110       .  S
C1430      H1435   1.095       .  S
C1430      H1436   1.109       .  S
C1437      C1438   1.416       .  A
C1437      C1442   1.406       .  A
C1437      H1444   1.083       .  S
C1438      C1439   1.417       .  A
C1439      C1440   1.402       .  A
C1439      C1446   1.508       .  S
C1440      C1441   1.404       .  A
C1440      H1445   1.080       .  S
C1441      C1442   1.404       .  A
C1442      C1443   1.504       .  S
C1443      H1447   1.111       .  S
C1443      H1448   1.111       .  S
C1443      H1449   1.110       .  S
C1446      H1450   1.102       .  S
C1446      H1451   1.109       .  S
C1446      H1452   1.106       .  S
C1453      C1454   1.420       .  A
C1453      C1458   1.410       .  A
C1453      H1460   1.083       .  S
C1454      C1455   1.412       .  A
C1455      C1456   1.414       .  A
C1455      C1462   1.503   1_556  S
C1456      C1457   1.415       .  A
C1456      H1461   1.081       .  S
C1457      C1458   1.408       .  A
C1458      C1459   1.506       .  S
C1459      H1463   1.111       .  S
C1459      H1464   1.110       .  S
C1459      H1465   1.111       .  S
C1462      H1466   1.107       .  S
C1462      H1467   1.104       .  S
C1462      H1468   1.110       .  S
C1469      C1470   1.408       .  A
C1469      C1474   1.403       .  A
C1469      H1476   1.083       .  S
C1470      C1471   1.407       .  A
C1471      C1472   1.399       .  A
C1471      C1478   1.507       .  S
C1472      C1473   1.406       .  A
C1472      H1477   1.075       .  S
C1473      C1474   1.411       .  A
C1474      C1475   1.507       .  S
C1475      H1479   1.110       .  S
C1475      H1480   1.110       .  S
C1475      H1481   1.104       .  S
C1478      H1482   1.109       .  S
C1478      H1483   1.110       .  S
C1478      H1484   1.111       .  S
C1485      C1486   1.397       .  A
C1485      C1490   1.392       .  A
C1485      H1492   1.066       .  S
C1486      C1487   1.423       .  A
C1487      C1488   1.426       .  A
C1487      C1494   1.501       .  S
C1488      C1489   1.414       .  A
C1488      H1493   1.083       .  S
C1489      C1490   1.412       .  A
C1490      C1491   1.511       .  S
C1491      H1495   1.100       .  S
C1491      H1496   1.111       .  S
C1491      H1497   1.108       .  S
C1494      H1498   1.110       .  S
C1494      H1499   1.110       .  S
C1494      H1500   1.111       .  S
C1501      C1502   1.405       .  A
C1501      C1506   1.414       .  A
C1501      H1508   1.081       .  S
C1502      C1503   1.425       .  A
C1503      C1504   1.420       .  A
C1503      C1510   1.506       .  S
C1504      C1505   1.411       .  A
C1504      H1509   1.083       .  S
C1505      C1506   1.430       .  A
C1506      C1507   1.511       .  S
C1507      H1511   1.110       .  S
C1507      H1512   1.108       .  S
C1507      H1513   1.110       .  S
C1510      H1514   1.109       .  S
C1510      H1515   1.110       .  S
C1510      H1516   1.111       .  S
C1517      C1518   1.399       .  A
C1517      C1522   1.403       .  A
C1517      H1524   1.084       .  S
C1518      C1519   1.430       .  A
C1519      C1520   1.396       .  A
C1519      C1526   1.502       .  S
C1520      C1521   1.394       .  A
C1520      H1525   1.086       .  S
C1521      C1522   1.420       .  A
C1522      C1523   1.498       .  S
C1523      H1527   1.111       .  S
C1523      H1528   1.109       .  S
C1523      H1529   1.110       .  S
C1526      H1530   1.106       .  S
C1526      H1531   1.093       .  S
C1526      H1532   1.108       .  S
C1533      C1534   1.398       .  A
C1533      C1538   1.397       .  A
C1533      H1540   1.075       .  S
C1534      C1535   1.409       .  A
C1535      C1536   1.412       .  A
C1535      C1542   1.504       .  S
C1536      C1537   1.409       .  A
C1536      H1541   1.073       .  S
C1537      C1538   1.424       .  A
C1538      C1539   1.518       .  S
C1539      H1543   1.109       .  S
C1539      H1544   1.102       .  S
C1539      H1545   1.110       .  S
C1542      H1546   1.110       .  S
C1542      H1547   1.110       .  S
C1542      H1548   1.109       .  S
C1549      C1550   1.404       .  A
C1549      C1554   1.409       .  A
C1549      H1556   1.085       .  S
C1550      C1551   1.418       .  A
C1551      C1552   1.397       .  A
C1551      C1558   1.506       .  S
C1552      C1553   1.408       .  A
C1552      H1557   1.084       .  S
C1553      C1554   1.418       .  A
C1554      C1555   1.498       .  S
C1555      H1559   1.111       .  S
C1555      H1560   1.104       .  S
C1555      H1561   1.107       .  S
C1558      H1562   1.102       .  S
C1558      H1563   1.106       .  S
C1558      H1564   1.107       .  S
C1565      C1566   1.412       .  A
C1565      C1570   1.398       .  A
C1565      H1572   1.084       .  S
C1566      C1567   1.415       .  A
C1567      C1568   1.393       .  A
C1567      C1574   1.512       .  S
C1568      C1569   1.406       .  A
C1568      H1573   1.084       .  S
C1569      C1570   1.402       .  A
C1570      C1571   1.505       .  S
C1571      H1575   1.110       .  S
C1571      H1576   1.111       .  S
C1571      H1577   1.110       .  S
C1574      H1578   1.109       .  S
C1574      H1579   1.106       .  S
C1574      H1580   1.111       .  S
C1581      C1582   1.391       .  A
C1581      C1586   1.384       .  A
C1581      H1588   1.087       .  S
C1582      C1583   1.407       .  A
C1583      C1584   1.401       .  A
C1583      C1590   1.499       .  S
C1584      C1585   1.409       .  A
C1584      H1589   1.085       .  S
C1585      C1586   1.431       .  A
C1586      C1587   1.500       .  S
C1587      H1591   1.096       .  S
C1587      H1592   1.105       .  S
C1587      H1593   1.077       .  S
C1590      H1594   1.110       .  S
C1590      H1595   1.091       .  S
C1590      H1596   1.111       .  S
C1597      C1598   1.421       .  A
C1597      C1602   1.402       .  A
C1597      H1604   1.083       .  S
C1598      C1599   1.408       .  A
C1599      C1600   1.417       .  A
C1599      C1606   1.504       .  S
C1600      C1601   1.424       .  A
C1600      H1605   1.076       .  S
C1601      C1602   1.400       .  A
C1602      C1603   1.495       .  S
C1603      H1607   1.110       .  S
C1603      H1608   1.095       .  S
C1603      H1609   1.107       .  S
C1606      H1610   1.110       .  S
C1606      H1611   1.110       .  S
C1606      H1612   1.110       .  S
C1613      C1614   1.397       .  A
C1613      C1618   1.408       .  A
C1613      H1620   1.084       .  S
C1614      C1615   1.444       .  A
C1615      C1616   1.405       .  A
C1615      C1622   1.511       .  S
C1616      C1617   1.386       .  A
C1616      H1621   1.083       .  S
C1617      C1618   1.430       .  A
C1618      C1619   1.506       .  S
C1619      H1623   1.110       .  S
C1619      H1624   1.111       .  S
C1619      H1625   1.111       .  S
C1622      H1626   1.106       .  S
C1622      H1627   1.091       .  S
C1622      H1628   1.105       .  S
C1629      C1630   1.387       .  A
C1629      C1634   1.408       .  A
C1629      H1636   1.083       .  S
C1630      C1631   1.435       .  A
C1631      C1632   1.411       .  A
C1631      C1638   1.508       .  S
C1632      C1633   1.396       .  A
C1632      H1637   1.084       .  S
C1633      C1634   1.445       .  A
C1634      C1635   1.511       .  S
C1635      H1639   1.110       .  S
C1635      H1640   1.110       .  S
C1635      H1641   1.097       .  S
C1638      H1642   1.111       .  S
C1638      H1643   1.110       .  S
C1638      H1644   1.110       .  S
C1645      C1646   1.393       .  A
C1645      C1650   1.392       .  A
C1645      H1652   1.086       .  S
C1646      C1647   1.418       .  A
C1647      C1648   1.401       .  A
C1647      C1654   1.486       .  S
C1648      C1649   1.395       .  A
C1648      H1653   1.085       .  S
C1649      C1650   1.422       .  A
C1650      C1651   1.498       .  S
C1651      H1655   1.106       .  S
C1651      H1656   1.103       .  S
C1651      H1657   1.106       .  S
C1654      H1658   1.106       .  S
C1654      H1659   1.110       .  S
C1654      H1660   1.111       .  S
C1661      C1662   1.408       .  A
C1661      C1666   1.395       .  A
C1661      H1668   1.076       .  S
C1662      C1663   1.409       .  A
C1663      C1664   1.420       .  A
C1663      C1670   1.504       .  S
C1664      C1665   1.418       .  A
C1664      H1669   1.080       .  S
C1665      C1666   1.415       .  A
C1666      C1667   1.512       .  S
C1667      H1671   1.111       .  S
C1667      H1672   1.110       .  S
C1667      H1673   1.110       .  S
C1670      H1674   1.110       .  S
C1670      H1675   1.110       .  S
C1670      H1676   1.111       .  S
C1677      C1678   1.411       .  A
C1677      C1682   1.413       .  A
C1677      H1684   1.074       .  S
C1678      C1679   1.424       .  A
C1679      C1680   1.404       .  A
C1679      C1686   1.514       .  S
C1680      C1681   1.401       .  A
C1680      H1685   1.079       .  S
C1681      C1682   1.410       .  A
C1682      C1683   1.504       .  S
C1683      H1687   1.109       .  S
C1683      H1688   1.110       .  S
C1683      H1689   1.110       .  S
C1686      H1690   1.110       .  S
C1686      H1691   1.107       .  S
C1686      H1692   1.100       .  S
C1693      C1694   1.394       .  A
C1693      C1698   1.392   1_556  A
C1693      H1700   1.085   1_556  S
C1694      C1695   1.437       .  A
C1695      C1696   1.414       .  A
C1695      C1702   1.512       .  S
C1696      C1697   1.400   1_556  A
C1696      H1701   1.084       .  S
C1697      C1698   1.410       .  A
C1698      C1699   1.487       .  S
C1699      H1703   1.111       .  S
C1699      H1704   1.107       .  S
C1699      H1705   1.109       .  S
C1702      H1706   1.100       .  S
C1702      H1707   1.110       .  S
C1702      H1708   1.102       .  S
C1709      C1710   1.418       .  A
C1709      C1714   1.400       .  A
C1709      H1716   1.065       .  S
C1710      C1711   1.400       .  A
C1711      C1712   1.414       .  A
C1711      C1718   1.505       .  S
C1712      C1713   1.425       .  A
C1712      H1717   1.082       .  S
C1713      C1714   1.401       .  A
C1714      C1715   1.508       .  S
C1715      H1719   1.111       .  S
C1715      H1720   1.110       .  S
C1715      H1721   1.110       .  S
C1718      H1722   1.110       .  S
C1718      H1723   1.110       .  S
C1718      H1724   1.111       .  S
C1725      C1726   1.404       .  A
C1725      C1730   1.408       .  A
C1725      H1732   1.084       .  S
C1726      C1727   1.416   1_556  A
C1727      C1728   1.420       .  A
C1727      C1734   1.503       .  S
C1728      C1729   1.412       .  A
C1728      H1733   1.083       .  S
C1729      C1730   1.425   1_554  A
C1730      C1731   1.512       .  S
C1731      H1735   1.111       .  S
C1731      H1736   1.107       .  S
C1731      H1737   1.109       .  S
C1734      H1738   1.110       .  S
C1734      H1739   1.110       .  S
C1734      H1740   1.110       .  S
C1741      C1742   1.411       .  A
C1741      C1746   1.407       .  A
C1741      H1748   1.075       .  S
C1742      C1743   1.406       .  A
C1743      C1744   1.416       .  A
C1743      C1750   1.504       .  S
C1744      C1745   1.423       .  A
C1744      H1749   1.083       .  S
C1745      C1746   1.411       .  A
C1746      C1747   1.504       .  S
C1747      H1751   1.109       .  S
C1747      H1752   1.104       .  S
C1747      H1753   1.109       .  S
C1750      H1754   1.110       .  S
C1750      H1755   1.111       .  S
C1750      H1756   1.111       .  S
C1757      C1758   1.401       .  A
C1757      C1762   1.401   1_556  A
C1757      H1764   1.084       .  S
C1758      C1759   1.417       .  A
C1759      C1760   1.392       .  A
C1759      C1766   1.509       .  S
C1760      C1761   1.398   1_556  A
C1760      H1765   1.085       .  S
C1761      C1762   1.412       .  A
C1762      C1763   1.505       .  S
C1763      H1767   1.111       .  S
C1763      H1768   1.107       .  S
C1763      H1769   1.110       .  S
C1766      H1770   1.107       .  S
C1766      H1771   1.110       .  S
C1766      H1772   1.110       .  S
C1773      C1774   1.407       .  A
C1773      C1778   1.405       .  A
C1773      H1780   1.082       .  S
C1774      C1775   1.413   1_556  A
C1775      C1776   1.414       .  A
C1775      C1782   1.504       .  S
C1776      C1777   1.410       .  A
C1776      H1781   1.084       .  S
C1777      C1778   1.414   1_554  A
C1778      C1779   1.506       .  S
C1779      H1783   1.110       .  S
C1779      H1784   1.102       .  S
C1779      H1785   1.110       .  S
C1782      H1786   1.110       .  S
C1782      H1787   1.110       .  S
C1782      H1788   1.111       .  S
C1789      C1790   1.392       .  A
C1789      C1794   1.400       .  A
C1789      H1796   1.081       .  S
C1790      C1791   1.452       .  A
C1791      C1792   1.413       .  A
C1791      C1798   1.511       .  S
C1792      C1793   1.389       .  A
C1792      H1797   1.084       .  S
C1793      C1794   1.439       .  A
C1794      C1795   1.507       .  S
C1795      H1799   1.110       .  S
C1795      H1800   1.096       .  S
C1795      H1801   1.092       .  S
C1798      H1802   1.110       .  S
C1798      H1803   1.098       .  S
C1798      H1804   1.111       .  S
C1805      C1806   1.407       .  A
C1805      C1810   1.410       .  A
C1805      H1812   1.076       .  S
C1806      C1807   1.414       .  A
C1807      C1808   1.412       .  A
C1807      C1814   1.505       .  S
C1808      C1809   1.412       .  A
C1808      H1813   1.084       .  S
C1809      C1810   1.413       .  A
C1810      C1811   1.512       .  S
C1811      H1815   1.111       .  S
C1811      H1816   1.105       .  S
C1811      H1817   1.102       .  S
C1814      H1818   1.110       .  S
C1814      H1819   1.110       .  S
C1814      H1820   1.111       .  S
C1821      C1822   1.394       .  A
C1821      C1826   1.396       .  A
C1821      H1828   1.082       .  S
C1822      C1823   1.434       .  A
C1823      C1824   1.411       .  A
C1823      C1830   1.506       .  S
C1824      C1825   1.396       .  A
C1824      H1829   1.083       .  S
C1825      C1826   1.427       .  A
C1826      C1827   1.508       .  S
C1827      H1831   1.111       .  S
C1827      H1832   1.110       .  S
C1827      H1833   1.110       .  S
C1830      H1834   1.110       .  S
C1830      H1835   1.103       .  S
C1830      H1836   1.109       .  S
C1837      C1838   1.409       .  A
C1837      C1842   1.411       .  A
C1837      H1844   1.083       .  S
C1838      C1839   1.412       .  A
C1839      C1840   1.411       .  A
C1839      C1846   1.506       .  S
C1840      C1841   1.409       .  A
C1840      H1845   1.082       .  S
C1841      C1842   1.415       .  A
C1842      C1843   1.505       .  S
C1843      H1847   1.110       .  S
C1843      H1848   1.110       .  S
C1843      H1849   1.104       .  S
C1846      H1850   1.109       .  S
C1846      H1851   1.110       .  S
C1846      H1852   1.109       .  S
C1853      C1854   1.401       .  A
C1853      C1858   1.416       .  A
C1853      H1860   1.084       .  S
C1854      C1855   1.437       .  A
C1855      C1856   1.397       .  A
C1855      C1862   1.497       .  S
C1856      C1857   1.383       .  A
C1856      H1861   1.084       .  S
C1857      C1858   1.431       .  A
C1858      C1859   1.508       .  S
C1859      H1863   1.111       .  S
C1859      H1864   1.110       .  S
C1859      H1865   1.108       .  S
C1862      H1866   1.100       .  S
C1862      H1867   1.101       .  S
C1862      H1868   1.110       .  S
C1869      C1870   1.407       .  A
C1869      C1874   1.410       .  A
C1869      H1876   1.084       .  S
C1870      C1871   1.424       .  A
C1871      C1872   1.388       .  A
C1871      C1878   1.509       .  S
C1872      C1873   1.402       .  A
C1872      H1877   1.085       .  S
C1873      C1874   1.417       .  A
C1874      C1875   1.504       .  S
C1875      H1879   1.111       .  S
C1875      H1880   1.110       .  S
C1875      H1881   1.103       .  S
C1878      H1882   1.109       .  S
C1878      H1883   1.093       .  S
C1878      H1884   1.099       .  S
C1885      C1886   1.405       .  A
C1885      C1890   1.417       .  A
C1885      H1892   1.084       .  S
C1886      C1887   1.412       .  A
C1887      C1888   1.368       .  A
C1887      C1894   1.480       .  S
C1888      C1889   1.380       .  A
C1888      H1893   1.083       .  S
C1889      C1890   1.423       .  A
C1890      C1891   1.504       .  S
C1891      H1895   1.110       .  S
C1891      H1896   1.107       .  S
C1891      H1897   1.110       .  S
C1894      H1898   1.097       .  S
C1894      H1899   1.105       .  S
C1894      H1900   1.109       .  S
C1901      C1902   1.398       .  A
C1901      C1906   1.399       .  A
C1901      H1908   1.079       .  S
C1902      C1903   1.412       .  A
C1903      C1904   1.416       .  A
C1903      C1910   1.506       .  S
C1904      C1905   1.412   1_556  A
C1904      H1909   1.080       .  S
C1905      C1906   1.420   1_554  A
C1906      C1907   1.514   1_556  S
C1907      H1911   1.110       .  S
C1907      H1912   1.106       .  S
C1907      H1913   1.110       .  S
C1910      H1914   1.110       .  S
C1910      H1915   1.108       .  S
C1910      H1916   1.100       .  S
C1917      C1918   1.410       .  A
C1917      C1922   1.409       .  A
C1917      H1924   1.085       .  S
C1918      C1919   1.424       .  A
C1919      C1920   1.401       .  A
C1919      C1926   1.498       .  S
C1920      C1921   1.396       .  A
C1920      H1925   1.082   1_556  S
C1921      C1922   1.406       .  A
C1922      C1923   1.496       .  S
C1923      H1927   1.108       .  S
C1923      H1928   1.110       .  S
C1923      H1929   1.110       .  S
C1926      H1930   1.088       .  S
C1926      H1931   1.089       .  S
C1926      H1932   1.111   1_556  S
C1933      C1934   1.413       .  A
C1933      C1938   1.408       .  A
C1933      H1940   1.081       .  S
C1934      C1935   1.417       .  A
C1935      C1936   1.405       .  A
C1935      C1942   1.510       .  S
C1936      C1937   1.405       .  A
C1936      H1941   1.080       .  S
C1937      C1938   1.411       .  A
C1938      C1939   1.506       .  S
C1939      H1943   1.111       .  S
C1939      H1944   1.108       .  S
C1939      H1945   1.110       .  S
C1942      H1946   1.110       .  S
C1942      H1947   1.107       .  S
C1942      H1948   1.111       .  S
C1949      C1950   1.402       .  A
C1949      C1954   1.412       .  A
C1949      H1956   1.084       .  S
C1950      C1951   1.420       .  A
C1951      C1952   1.400       .  A
C1951      C1958   1.501       .  S
C1952      C1953   1.396       .  A
C1952      H1957   1.085       .  S
C1953      C1954   1.425       .  A
C1954      C1955   1.507       .  S
C1955      H1959   1.111       .  S
C1955      H1960   1.110       .  S
C1955      H1961   1.108       .  S
C1958      H1962   1.101       .  S
C1958      H1963   1.105       .  S
C1958      H1964   1.105       .  S
C1965      C1966   1.383       .  A
C1965      C1970   1.377       .  A
C1965      H1972   1.087       .  S
C1966      C1967   1.412       .  A
C1967      C1968   1.420       .  A
C1967      C1974   1.504       .  S
C1968      C1969   1.415       .  A
C1968      H1973   1.083       .  S
C1969      C1970   1.421       .  A
C1970      C1971   1.486       .  S
C1971      H1975   1.104       .  S
C1971      H1976   1.105       .  S
C1971      H1977   1.085       .  S
C1974      H1978   1.102       .  S
C1974      H1979   1.110       .  S
C1974      H1980   1.111       .  S
C1981      C1982   1.398       .  A
C1981      C1986   1.397       .  A
C1981      H1988   1.085       .  S
C1982      C1983   1.414       .  A
C1983      C1984   1.410       .  A
C1983      C1990   1.507       .  S
C1984      C1985   1.410       .  A
C1984      H1989   1.084       .  S
C1985      C1986   1.426       .  A
C1986      C1987   1.503       .  S
C1987      H1991   1.102       .  S
C1987      H1992   1.097       .  S
C1987      H1993   1.102       .  S
C1990      H1994   1.095       .  S
C1990      H1995   1.110       .  S
C1990      H1996   1.111       .  S
C1997      C1998   1.412       .  A
C1997      C2002   1.422       .  A
C1997      H2004   1.083       .  S
C1998      C1999   1.432       .  A
C1999      C2000   1.410       .  A
C1999      C2006   1.514       .  S
C2000      C2001   1.399       .  A
C2000      H2005   1.078       .  S
C2001      C2002   1.421       .  A
C2002      C2003   1.506       .  S
C2003      H2007   1.111       .  S
C2003      H2008   1.110       .  S
C2003      H2009   1.109       .  S
C2006      H2010   1.103       .  S
C2006      H2011   1.110       .  S
C2006      H2012   1.109       .  S
C2013      C2014   1.402       .  A
C2013      C2018   1.400       .  A
C2013      H2020   1.084       .  S
C2014      C2015   1.404       .  A
C2015      C2016   1.405       .  A
C2015      C2022   1.504       .  S
C2016      C2017   1.414       .  A
C2016      H2021   1.080       .  S
C2017      C2018   1.412       .  A
C2018      C2019   1.506       .  S
C2019      H2023   1.110       .  S
C2019      H2024   1.085       .  S
C2019      H2025   1.110       .  S
C2022      H2026   1.111       .  S
C2022      H2027   1.110       .  S
C2022      H2028   1.111       .  S
C2029      C2030   1.379       .  A
C2029      C2034   1.394       .  A
C2029      H2036   1.085       .  S
C2030      C2031   1.437       .  A
C2031      C2032   1.400       .  A
C2031      C2038   1.513       .  S
C2032      C2033   1.392       .  A
C2032      H2037   1.084       .  S
C2033      C2034   1.433       .  A
C2034      C2035   1.491       .  S
C2035      H2039   1.111       .  S
C2035      H2040   1.100       .  S
C2035      H2041   1.103       .  S
C2038      H2042   1.111       .  S
C2038      H2043   1.109       .  S
C2038      H2044   1.110       .  S
C2045      C2046   1.402       .  A
C2045      C2050   1.412       .  A
C2045      H2052   1.084       .  S
C2046      C2047   1.423       .  A
C2047      C2048   1.393       .  A
C2047      C2054   1.480       .  S
C2048      C2049   1.383       .  A
C2048      H2053   1.085       .  S
C2049      C2050   1.419       .  A
C2050      C2051   1.490       .  S
C2051      H2055   1.110       .  S
C2051      H2056   1.108   1_655  S
C2051      H2057   1.106   1_655  S
C2054      H2058   1.100       .  S
C2054      H2059   1.098       .  S
C2054      H2060   1.092       .  S
C2061      C2062   1.405       .  A
C2061      C2066   1.406   1_556  A
C2061      H2068   1.085       .  S
C2062      C2063   1.429       .  A
C2063      C2064   1.403       .  A
C2063      C2070   1.511       .  S
C2064      C2065   1.406   1_556  A
C2064      H2069   1.084       .  S
C2065      C2066   1.418       .  A
C2066      C2067   1.498       .  S
C2067      H2071   1.111       .  S
C2067      H2072   1.110       .  S
C2067      H2073   1.107       .  S
C2070      H2074   1.095       .  S
C2070      H2075   1.100       .  S
C2070      H2076   1.110       .  S
C2077      C2078   1.397       .  A
C2077      C2082   1.418       .  A
C2077      H2084   1.084       .  S
C2078      C2079   1.431       .  A
C2079      C2080   1.405       .  A
C2079      C2086   1.486       .  S
C2080      C2081   1.385       .  A
C2080      H2085   1.085       .  S
C2081      C2082   1.438       .  A
C2082      C2083   1.509       .  S
C2083      H2087   1.111       .  S
C2083      H2088   1.103   1_655  S
C2083      H2089   1.107       .  S
C2086      H2090   1.103       .  S
C2086      H2091   1.106       .  S
C2086      H2092   1.111       .  S
C2093      C2094   1.400       .  A
C2093      C2098   1.392       .  A
C2093      H2100   1.078       .  S
C2094      C2095   1.405   1_556  A
C2095      C2096   1.405       .  A
C2095      C2102   1.503       .  S
C2096      C2097   1.411       .  A
C2096      H2101   1.084       .  S
C2097      C2098   1.405   1_554  A
C2098      C2099   1.506       .  S
C2099      H2103   1.110       .  S
C2099      H2104   1.109       .  S
C2099      H2105   1.084       .  S
C2102      H2106   1.110       .  S
C2102      H2107   1.110       .  S
C2102      H2108   1.111       .  S
C2109      C2110   1.397       .  A
C2109      C2114   1.381       .  A
C2109      H2116   1.086       .  S
C2110      C2111   1.415       .  A
C2111      C2112   1.402       .  A
C2111      C2118   1.505       .  S
C2112      C2113   1.402       .  A
C2112      H2117   1.084       .  S
C2113      C2114   1.405       .  A
C2114      C2115   1.497       .  S
C2115      H2119   1.111       .  S
C2115      H2120   1.105       .  S
C2115      H2121   1.106       .  S
C2118      H2122   1.111       .  S
C2118      H2123   1.110       .  S
C2118      H2124   1.111       .  S
C2125      C2126   1.434       .  A
C2125      C2130   1.400       .  A
C2125      H2132   1.079       .  S
C2126      C2127   1.403       .  A
C2127      C2128   1.418       .  A
C2127      C2134   1.504       .  S
C2128      C2129   1.431       .  A
C2128      H2133   1.083       .  S
C2129      C2130   1.398       .  A
C2130      C2131   1.507       .  S
C2131      H2135   1.111       .  S
C2131      H2136   1.109       .  S
C2131      H2137   1.110       .  S
C2134      H2138   1.097       .  S
C2134      H2139   1.110       .  S
C2134      H2140   1.111       .  S
C2141      C2142   1.422       .  A
C2141      C2146   1.395       .  A
C2141      H2148   1.073       .  S
C2142      C2143   1.406       .  A
C2143      C2144   1.416       .  A
C2143      C2150   1.506       .  S
C2144      C2145   1.423       .  A
C2144      H2149   1.083       .  S
C2145      C2146   1.402       .  A
C2146      C2147   1.510       .  S
C2147      H2151   1.111       .  S
C2147      H2152   1.106       .  S
C2147      H2153   1.110       .  S
C2150      H2154   1.106       .  S
C2150      H2155   1.110       .  S
C2150      H2156   1.111       .  S
C2157      C2158   1.407       .  A
C2157      C2162   1.414       .  A
C2157      H2164   1.084       .  S
C2158      C2159   1.416       .  A
C2159      C2160   1.417       .  A
C2159      C2166   1.502       .  S
C2160      C2161   1.411       .  A
C2160      H2165   1.084       .  S
C2161      C2162   1.428       .  A
C2162      C2163   1.510       .  S
C2163      H2167   1.111       .  S
C2163      H2168   1.091       .  S
C2163      H2169   1.105       .  S
C2166      H2170   1.098   1_655  S
C2166      H2171   1.110       .  S
C2166      H2172   1.111       .  S
C2173      C2174   1.388       .  A
C2173      C2178   1.400       .  A
C2173      H2180   1.084       .  S
C2174      C2175   1.432       .  A
C2175      C2176   1.403       .  A
C2175      C2182   1.507       .  S
C2176      C2177   1.391       .  A
C2176      H2181   1.084       .  S
C2177      C2178   1.438       .  A
C2178      C2179   1.511       .  S
C2179      H2183   1.111       .  S
C2179      H2184   1.110       .  S
C2179      H2185   1.098       .  S
C2182      H2186   1.111       .  S
C2182      H2187   1.110       .  S
C2182      H2188   1.110       .  S
C2189      C2190   1.408       .  A
C2189      C2194   1.394       .  A
C2189      H2196   1.083       .  S
C2190      C2191   1.406       .  A
C2191      C2192   1.396       .  A
C2191      C2198   1.509       .  S
C2192      C2193   1.410       .  A
C2192      H2197   1.085       .  S
C2193      C2194   1.403       .  A
C2194      C2195   1.507       .  S
C2195      H2199   1.111       .  S
C2195      H2200   1.110       .  S
C2195      H2201   1.110       .  S
C2198      H2202   1.107       .  S
C2198      H2203   1.110       .  S
C2198      H2204   1.111       .  S
C2205      C2206   1.407       .  A
C2205      C2210   1.401       .  A
C2205      H2212   1.073       .  S
C2206      C2207   1.418       .  A
C2207      C2208   1.413       .  A
C2207      C2214   1.505       .  S
C2208      C2209   1.398       .  A
C2208      H2213   1.076       .  S
C2209      C2210   1.403       .  A
C2210      C2211   1.507       .  S
C2211      H2215   1.109       .  S
C2211      H2216   1.106       .  S
C2211      H2217   1.104       .  S
C2214      H2218   1.110       .  S
C2214      H2219   1.109       .  S
C2214      H2220   1.110       .  S
C2221      C2222   1.398       .  A
C2221      C2226   1.403       .  A
C2221      H2228   1.085       .  S
C2222      C2223   1.426       .  A
C2223      C2224   1.404       .  A
C2223      C2230   1.505       .  S
C2224      C2225   1.405       .  A
C2224      H2229   1.085       .  S
C2225      C2226   1.423       .  A
C2226      C2227   1.495       .  S
C2227      H2231   1.111       .  S
C2227      H2232   1.108       .  S
C2227      H2233   1.110       .  S
C2230      H2234   1.103       .  S
C2230      H2235   1.094       .  S
C2230      H2236   1.100       .  S
C2237      C2238   1.401       .  A
C2237      C2242   1.407       .  A
C2237      H2244   1.080       .  S
C2238      C2239   1.417       .  A
C2239      C2240   1.415       .  A
C2239      C2246   1.506       .  S
C2240      C2241   1.411       .  A
C2240      H2245   1.084       .  S
C2241      C2242   1.421       .  A
C2242      C2243   1.513   1_556  S
C2243      H2247   1.110       .  S
C2243      H2248   1.110       .  S
C2243      H2249   1.106       .  S
C2246      H2250   1.109       .  S
C2246      H2251   1.110       .  S
C2246      H2252   1.111       .  S
C2253      C2254   1.396       .  A
C2253      C2258   1.406       .  A
C2253      H2260   1.085   1_556  S
C2254      C2255   1.421       .  A
C2255      C2256   1.405       .  A
C2255      C2262   1.490       .  S
C2256      C2257   1.396       .  A
C2256      H2261   1.085       .  S
C2257      C2258   1.424       .  A
C2258      C2259   1.495       .  S
C2259      H2263   1.102   1_556  S
C2259      H2264   1.099       .  S
C2259      H2265   1.104       .  S
C2262      H2266   1.107       .  S
C2262      H2267   1.109       .  S
C2262      H2268   1.111       .  S
C2269      C2270   1.412       .  A
C2269      C2274   1.420       .  A
C2269      H2276   1.083       .  S
C2270      C2271   1.430       .  A
C2271      C2272   1.401       .  A
C2271      C2278   1.492       .  S
C2272      C2273   1.390       .  A
C2272      H2277   1.086       .  S
C2273      C2274   1.417       .  A
C2274      C2275   1.503       .  S
C2275      H2279   1.111       .  S
C2275      H2280   1.106       .  S
C2275      H2281   1.110       .  S
C2278      H2282   1.097       .  S
C2278      H2283   1.104       .  S
C2278      H2284   1.106       .  S
C2285      C2286   1.412       .  A
C2285      C2290   1.421       .  A
C2285      H2292   1.083       .  S
C2286      C2287   1.407       .  A
C2287      C2288   1.399       .  A
C2287      C2294   1.474       .  S
C2288      C2289   1.394       .  A
C2288      H2293   1.084       .  S
C2289      C2290   1.421       .  A
C2290      C2291   1.503       .  S
C2291      H2295   1.111       .  S
C2291      H2296   1.110       .  S
C2291      H2297   1.106       .  S
C2294      H2298   1.091       .  S
C2294      H2299   1.095       .  S
C2294      H2300   1.106       .  S
C2301      C2302   1.392       .  A
C2301      C2306   1.415       .  A
C2301      H2308   1.084       .  S
C2302      C2303   1.453       .  A
C2303      C2304   1.413       .  A
C2303      C2310   1.509       .  S
C2304      C2305   1.389       .  A
C2304      H2309   1.084       .  S
C2305      C2306   1.430       .  A
C2306      C2307   1.499       .  S
C2307      H2311   1.111       .  S
C2307      H2312   1.103       .  S
C2307      H2313   1.108       .  S
C2310      H2314   1.086       .  S
C2310      H2315   1.109       .  S
C2310      H2316   1.111       .  S
C2317      C2318   1.385       .  A
C2317      C2322   1.395       .  A
C2317      H2324   1.085       .  S
C2318      C2319   1.421       .  A
C2319      C2320   1.393       .  A
C2319      C2326   1.507       .  S
C2320      C2321   1.393       .  A
C2320      H2325   1.084       .  S
C2321      C2322   1.437       .  A
C2322      C2323   1.514       .  S
C2323      H2327   1.111       .  S
C2323      H2328   1.101       .  S
C2323      H2329   1.110       .  S
C2326      H2330   1.110       .  S
C2326      H2331   1.100       .  S
C2326      H2332   1.093       .  S
C2333      C2334   1.379       .  A
C2333      C2338   1.381       .  A
C2333      H2340   1.085   1_556  S
C2334      C2335   1.423       .  A
C2335      C2336   1.408       .  A
C2335      C2342   1.497       .  S
C2336      C2337   1.398       .  A
C2336      H2341   1.084       .  S
C2337      C2338   1.423       .  A
C2338      C2339   1.478       .  S
C2339      H2343   1.091       .  S
C2339      H2344   1.106       .  S
C2339      H2345   1.109   1_556  S
C2342      H2346   1.108       .  S
C2342      H2347   1.110       .  S
C2342      H2348   1.111       .  S
C2349      C2350   1.411       .  A
C2349      C2354   1.406       .  A
C2349      H2356   1.084       .  S
C2350      C2351   1.426       .  A
C2351      C2352   1.389   1_556  A
C2351      C2358   1.509       .  S
C2352      C2353   1.402       .  A
C2352      H2357   1.085       .  S
C2353      C2354   1.412   1_554  A
C2354      C2355   1.503       .  S
C2355      H2359   1.111       .  S
C2355      H2360   1.110   1_556  S
C2355      H2361   1.095       .  S
C2358      H2362   1.094       .  S
C2358      H2363   1.101       .  S
C2358      H2364   1.108   1_556  S
