geometry optimzed in LAMMPS
_audit_creation_date              2020-11-30 
_audit_creation_method            'lammps2cif' 
_symmetry_space_group_name_H-M    'P1' 
_symmetry_Int_Tables_number       1 
_symmetry_cell_setting            triclinic 
loop_ 
_symmetry_equiv_pos_as_xyz 
  x,y,z 
_cell_length_a                    36.40234199 
_cell_length_b                    36.47819613479367 
_cell_length_c                    36.48478461787378 
_cell_angle_alpha                 90.30673937292678 
_cell_angle_beta                  90.06048531711312 
_cell_angle_gamma                 90.50525808279599 
loop_ 
_atom_site_label 
_atom_site_type_symbol 
_atom_site_fract_x 
_atom_site_fract_y 
_atom_site_fract_z 
_atom_site_charge 
O1          O  0.55359326  0.93958165  0.45895514    -0.78000
O2          O  0.44154200  0.93963415  0.52763546    -0.78000
O3          O  0.52838097  0.94551404  0.55308465    -0.78000
O4          O  0.47936998  0.94151683  0.42913917    -0.78000
O5          O  0.48278162  0.97035485  0.58113105    -0.78100
O6          O  0.52607193  0.96916401  0.40447876    -0.78000
O7          O  0.42026664  0.95266631  0.47315337    -0.78000
O8          O  0.58285738  0.95922814  0.50631661    -0.78100
C9          C  0.58074996  0.93725640  0.47929271     1.11700
C10         C  0.41959173  0.93310150  0.50207499     1.11600
C11         C  0.50928183  0.94812288  0.58112947     1.11700
C12         C  0.50104536  0.94480931  0.40252266     1.11600
O13         O  0.52818339  0.04126535  0.44456671    -0.78000
O14         O  0.46783850  0.04136610  0.54700233    -0.78100
O15         O  0.56384788  0.03783517  0.51080816    -0.78000
O16         O  0.43659296  0.03358358  0.46417214    -0.78000
O17         O  0.40920866  0.01035611  0.51057822    -0.78100
O18         O  0.58644232  0.01223150  0.46218685    -0.78000
O19         O  0.48373874  0.02081250  0.41176116    -0.78000
O20         O  0.52088403  0.02571595  0.56987620    -0.78100
Co21       Co  0.53569136  0.98972421  0.45530978     1.51500
Co22       Co  0.45531048  0.99042903  0.53653287     1.51700
Co23       Co  0.54353834  0.99175358  0.53091532     1.51600
Co24       Co  0.45884613  0.98709032  0.44958471     1.51500
O25         O  0.49662434  0.98855867  0.49488114    -1.40000
C26         C  0.50926120  0.04413721  0.41667508     1.11600
C27         C  0.49283016  0.04637943  0.56999401     1.11700
C28         C  0.58948039  0.03571692  0.48781995     1.11600
C29         C  0.40866540  0.03188110  0.48349058     1.11600
O30         O  0.96515513  0.55579890  0.53037566    -0.78000
O31         O  0.97364413  0.40583149  0.47716777    -0.78000
O32         O  0.94327500  0.50964908  0.46660988    -0.78000
O33         O  0.94599787  0.48458952  0.56775682    -0.78000
O34         O  0.97088107  0.46743316  0.43290743    -0.78100
O35         O  0.98789852  0.51875222  0.59173261    -0.78000
O36         O  0.93760220  0.42736752  0.52073599    -0.78000
O37         O  0.97574929  0.57808765  0.47543543    -0.78100
C38         C  0.96185267  0.58206238  0.50729404     1.11700
C39         C  0.94291386  0.40681734  0.49323287     1.11600
C40         C  0.94505531  0.49119797  0.43729403     1.11700
C41         C  0.95824875  0.50028292  0.59571631     1.11600
O42         O  0.05489850  0.49768557  0.55428707    -0.78000
O43         O  0.04926009  0.47995775  0.45432273    -0.78100
O44         O  0.04188155  0.54971757  0.49616154    -0.78000
O45         O  0.00906328  0.40125210  0.54110539    -0.78000
O46         O  0.04832719  0.42018960  0.49918976    -0.78100
O47         O  0.03548726  0.57064054  0.55253892    -0.78000
O48         O  0.02122796  0.46004400  0.58769377    -0.78000
O49         O  0.01376442  0.52106009  0.43224480    -0.78100
Co50       Co  0.01113264  0.52467517  0.54004688     1.51500
Co51       Co  0.01043920  0.44545528  0.46830672     1.51700
Co52       Co  0.99093778  0.52778993  0.48407158     1.51600
Co53       Co  0.97879151  0.44553099  0.55195658     1.51500
O54         O  0.99661662  0.47893294  0.51074366    -1.40000
C55         C  0.05052243  0.47954356  0.58321050     1.11600
C56         C  0.04021163  0.49878733  0.42734407     1.11700
C57         C  0.05036236  0.57335277  0.52104011     1.11600
C58         C  0.04014709  0.39926813  0.52576877     1.11600
O59         O  0.47154027  0.51803305  0.04902859    -0.78000
O60         O  0.53935586  0.49466558  0.04876439    -0.78000
O61         O  0.48654178  0.42582191  0.01043584    -0.78000
O62         O  0.52411190  0.58680208  0.01073347    -0.78000
O63         O  0.54447954  0.42200239  0.03033392    -0.78100
O64         O  0.46610173  0.59011552  0.03052799    -0.78000
O65         O  0.57619810  0.53371538  0.02216139    -0.78000
O66         O  0.43467348  0.47979884  0.02096341    -0.78100
C67         C  0.44203197  0.49997429  0.04878587     1.11700
C68         C  0.56834581  0.51344996  0.04954941     1.11600
C69         C  0.51137232  0.40973058  0.02960873     1.11700
C70         C  0.49899490  0.60271035  0.02986444     1.11600
O71         O  0.47180838  0.57681031  0.95937731    -0.78000
O72         O  0.54104337  0.43544436  0.95882214    -0.78100
O73         O  0.44122849  0.49916722  0.94308181    -0.78000
O74         O  0.57258954  0.51410741  0.94402011    -0.78000
O75         O  0.59062874  0.47789898  0.98765985    -0.78100
O76         O  0.42278225  0.53570790  0.98666927    -0.78000
O77         O  0.52342753  0.56852250  0.93111535    -0.78000
O78         O  0.48869420  0.44281542  0.93130671    -0.78100
Co79       Co  0.47611732  0.54600440  0.00372334     1.51500
Co80       Co  0.53647474  0.46652393  0.00328473     1.51700
Co81       Co  0.46574736  0.46511383  0.97592637     1.51600
Co82       Co  0.54616554  0.54760077  0.97638241     1.51500
O83         O  0.50618018  0.50612115  0.98052758    -1.40000
C84         C  0.49203199  0.58270045  0.93237159     1.11600
C85         C  0.52007374  0.42853150  0.93243525     1.11700
C86         C  0.41569375  0.51654737  0.95795249     1.11600
C87         C  0.59834406  0.49770756  0.95955415     1.11600
C88         C  0.62922995  0.90871261  0.78108851     0.05200
C89         C  0.60592637  0.91102780  0.75071973    -0.10900
C90         C  0.61116543  0.88918010  0.71969978     0.02700
C91         C  0.64049327  0.86428437  0.71878982    -0.09400
C92         C  0.66417180  0.86023229  0.74928468     0.05200
C93         C  0.65819286  0.88274623  0.78074707    -0.08800
H94         H  0.58371810  0.93070350  0.75093440     0.10800
H95         H  0.64498422  0.84804803  0.69422978     0.08400
H96         H  0.67660054  0.88105148  0.80398094     0.08200
C97         C  0.77130447  0.73030722  0.78315222     0.82300
N98         N  0.79624354  0.73639719  0.75568972    -0.76000
C99         C  0.79268361  0.76532873  0.73225636     0.84800
N100        N  0.76380778  0.78866004  0.73695693    -0.75900
C101        C  0.73855815  0.78328793  0.76423090     0.84900
N102        N  0.74264915  0.75402602  0.78722034    -0.77600
C103        C  0.90508076  0.72687310  0.60606328     0.05200
C104        C  0.87951760  0.72374457  0.63493935    -0.10900
C105        C  0.87167439  0.75379672  0.65835364     0.02700
C106        C  0.89099381  0.78737241  0.65257901    -0.09400
C107        C  0.91758561  0.79049121  0.62422094     0.05200
C108        C  0.92395486  0.76019277  0.60117169    -0.08800
H109        H  0.86541578  0.69779355  0.63907079     0.10800
H110        H  0.88616436  0.81051858  0.67057462     0.08400
H111        H  0.94400392  0.76250102  0.57931556     0.08200
C112        C  0.79915915  0.62902334  0.90850313     0.05200
C113        C  0.79338398  0.65437028  0.88000429    -0.10900
C114        C  0.75942863  0.65545896  0.86099194     0.02700
C115        C  0.73136013  0.63009054  0.87136877    -0.09400
C116        C  0.73721576  0.60393995  0.89942743     0.05200
C117        C  0.77117684  0.60395558  0.91766446    -0.08800
H118        H  0.81492982  0.67391990  0.87353916     0.10800
H119        H  0.70497544  0.63069708  0.85756400     0.08400
H120        H  0.77580283  0.58440846  0.93946082     0.08200
C121        C  0.28077951  0.22493124  0.76623771     0.82300
N122        N  0.25583909  0.22490020  0.73788774    -0.76000
C123        C  0.22828145  0.25030695  0.73704170     0.84800
N124        N  0.22607416  0.27548496  0.76465904    -0.75900
C125        C  0.25026860  0.27592783  0.79312064     0.84900
N126        N  0.27754921  0.25046967  0.79374397    -0.77600
C127        C  0.28707907  0.40055279  0.90721581     0.05200
C128        C  0.29197191  0.37265927  0.88073573    -0.10900
C129        C  0.26493193  0.34489176  0.87546067     0.02700
C130        C  0.23316735  0.34530263  0.89809177    -0.09400
C131        C  0.22901456  0.37272492  0.92534179     0.05200
C132        C  0.25593465  0.39994275  0.92938614    -0.08800
H133        H  0.31641100  0.37292505  0.86379993     0.10800
H134        H  0.21221660  0.32427406  0.89489718     0.08400
H135        H  0.25240522  0.42126569  0.94992501     0.08200
C136        C  0.38947654  0.10060980  0.77333011     0.05200
C137        C  0.36155313  0.12754846  0.77383218    -0.10900
C138        C  0.35496560  0.14967577  0.74248658     0.02700
C139        C  0.37717812  0.14417616  0.71109494    -0.09400
C140        C  0.40549446  0.11807167  0.71096527     0.05200
C141        C  0.41127505  0.09662500  0.74201817    -0.08800
H142        H  0.34443277  0.13035264  0.79788790     0.10800
H143        H  0.37238853  0.16026704  0.68665368     0.08400
H144        H  0.43267637  0.07608143  0.74158128     0.08200
C145        C  0.10232771  0.19658120  0.62854234     0.05200
C146        C  0.13161718  0.19537742  0.65399755    -0.10900
C147        C  0.15454163  0.22645971  0.66051497     0.02700
C148        C  0.14751270  0.25888346  0.64027185    -0.09400
C149        C  0.11843809  0.26014132  0.61452815     0.05200
C150        C  0.09623057  0.22897193  0.60905331    -0.08800
H151        H  0.13640204  0.17029900  0.66896707     0.10800
H152        H  0.16474683  0.28294381  0.64396691     0.08400
H153        H  0.07387262  0.22995947  0.58940375     0.08200
O154        O  0.54540281  0.99161052  0.92915467    -0.78000
O155        O  0.52099985  0.03844500  0.07656903    -0.78000
O156        O  0.55674697  0.05426436  0.97665101    -0.78000
O157        O  0.56187847  0.95368603  0.99664155    -0.78000
O158        O  0.52291239  0.08506248  0.01601009    -0.78100
O159        O  0.52554476  0.92690189  0.95833028    -0.78000
O160        O  0.56117463  0.99795874  0.05656530    -0.78000
O161        O  0.53196141  0.04510236  0.90560044    -0.78100
C162        C  0.54991564  0.01517475  0.90374876     1.11700
C163        C  0.55259972  0.02434050  0.07754303     1.11600
C164        C  0.55069816  0.08349178  0.99398018     1.11700
C165        C  0.55445150  0.92570876  0.97814925     1.11600
O166        O  0.45291828  0.95468808  0.97495979    -0.78000
O167        O  0.44777712  0.05541090  0.99904260    -0.78100
O168        O  0.46456554  0.01851194  0.92876949    -0.78000
O169        O  0.49013836  0.96909702  0.07592574    -0.78000
O170        O  0.44955246  0.00973218  0.05755893    -0.78100
O171        O  0.47854642  0.96541656  0.90421523    -0.78000
O172        O  0.48705782  0.92415585  0.01432165    -0.78000
O173        O  0.48352940  0.08266346  0.96075904    -0.78100
Co174      Co  0.49734029  0.97594432  0.95354217     1.51500
Co175      Co  0.48583834  0.04476030  0.03515948     1.51700
Co176      Co  0.51229672  0.03378949  0.95435381     1.51600
Co177      Co  0.52453679  0.96368871  0.03373335     1.51500
O178        O  0.50476798  0.00442759  0.00142362    -1.40000
C179        C  0.45895374  0.92581717  0.99275535     1.11600
C180        C  0.45484412  0.08357532  0.98101058     1.11700
C181        C  0.46102264  0.99553711  0.90240566     1.11600
C182        C  0.45820262  0.98242261  0.07710088     1.11600
C183        C  0.27061492  0.73633182  0.77193034     0.82300
N184        N  0.24364132  0.71025101  0.76743672    -0.76000
C185        C  0.22029480  0.71112924  0.73799565     0.84800
N186        N  0.22457770  0.73839334  0.71265049    -0.75900
C187        C  0.25144507  0.76457484  0.71662095     0.84900
N188        N  0.27437965  0.76307352  0.74618918    -0.77600
C189        C  0.39778749  0.72326760  0.87379545     0.05200
C190        C  0.36877713  0.72557576  0.84833789    -0.10900
C191        C  0.34831704  0.75815092  0.84472137     0.02700
C192        C  0.35777608  0.78860853  0.86752103    -0.09400
C193        C  0.38633846  0.78625351  0.89388038     0.05200
C194        C  0.40605143  0.75345091  0.89651592    -0.08800
H195        H  0.36299965  0.70232459  0.83057842     0.10800
H196        H  0.34285901  0.81400600  0.86481849     0.08400
H197        H  0.42826342  0.75147680  0.91623122     0.08200
C198        C  0.22037137  0.89008068  0.60280242     0.05200
C199        C  0.21383596  0.86262672  0.62922470    -0.10900
C200        C  0.24055321  0.83553982  0.63653401     0.02700
C201        C  0.27363460  0.83605885  0.61595113    -0.09400
C202        C  0.27959952  0.86293338  0.58878911     0.05200
C203        C  0.25303301  0.88967824  0.58277541    -0.08800
H204        H  0.18824780  0.86263991  0.64446631     0.10800
H205        H  0.29422938  0.81536126  0.62050211     0.08400
H206        H  0.25789303  0.91056861  0.56222738     0.08200
C207        C  0.09605095  0.59619806  0.77912905     0.05200
C208        C  0.09369874  0.57509652  0.74713124    -0.10900
C209        C  0.11813499  0.58053291  0.71801827     0.02700
C210        C  0.14529206  0.60858094  0.72065678    -0.09400
C211        C  0.14842687  0.63044677  0.75294213     0.05200
C212        C  0.12369020  0.62344759  0.78216877    -0.08800
H213        H  0.07278904  0.55379623  0.74502839     0.10800
H214        H  0.16437715  0.61261973  0.69825870     0.08400
H215        H  0.12587403  0.63933864  0.80725086     0.08200
C216        C  0.76114046  0.28738368  0.21810907     0.82300
N217        N  0.78727122  0.28451396  0.24464918    -0.76000
C218        C  0.78718433  0.25618547  0.26892651     0.84800
N219        N  0.76004968  0.23012620  0.26662350    -0.75900
C220        C  0.73350351  0.23243103  0.24006844     0.84900
N221        N  0.73434687  0.26107383  0.21595189    -0.77600
C222        C  0.87896146  0.26978405  0.40048315     0.05200
C223        C  0.85372646  0.26468272  0.37186181    -0.10900
C224        C  0.85401504  0.23246148  0.35019918     0.02700
C225        C  0.88006910  0.20484161  0.35883080    -0.09400
C226        C  0.90596076  0.21038425  0.38760099     0.05200
C227        C  0.90494734  0.24292846  0.40791498    -0.08800
H228        H  0.83358138  0.28576464  0.36685646     0.10800
H229        H  0.88055304  0.17965822  0.34297699     0.08400
H230        H  0.92459031  0.24739828  0.42994036     0.08200
C231        C  0.76793321  0.40417060  0.10222698     0.05200
C232        C  0.73641043  0.42566132  0.09925783    -0.10900
C233        C  0.70469409  0.41749789  0.11932809     0.02700
C234        C  0.70454167  0.38699055  0.14301390    -0.09400
C235        C  0.73626720  0.36509933  0.14743117     0.05200
C236        C  0.76807241  0.37413715  0.12666537    -0.08800
H237        H  0.73636613  0.44873986  0.08060309     0.10800
H238        H  0.67975383  0.38034744  0.15813839     0.08400
H239        H  0.79237331  0.35736071  0.12860405     0.08200
C240        C  0.62851741  0.10773370  0.22137829     0.05200
C241        C  0.60756693  0.09849521  0.25218813    -0.10900
C242        C  0.61415990  0.11547350  0.28608094     0.02700
C243        C  0.64257228  0.14178682  0.28929688    -0.09400
C244        C  0.66370834  0.15209512  0.25845170     0.05200
C245        C  0.65634861  0.13467010  0.22441670    -0.08800
H246        H  0.58579678  0.07809861  0.24970881     0.10800
H247        H  0.64779205  0.15476686  0.31566623     0.08400
H248        H  0.67256655  0.14144062  0.20052616     0.08200
O249        O  0.94191679  0.54116262  0.97884011    -0.78000
O250        O  0.08286781  0.52404235  0.04879925    -0.78000
O251        O  0.00719860  0.54787676  0.07862426    -0.78000
O252        O  0.02363666  0.54787991  0.94704429    -0.78000
O253        O  0.03746616  0.50000840  0.09640420    -0.78100
O254        O  0.97933660  0.51051104  0.92951551    -0.78000
O255        O  0.07934047  0.55232717  0.99686662    -0.78000
O256        O  0.95339641  0.56777630  0.03083776    -0.78100
C257        C  0.93893144  0.56837095  0.99951033     1.11700
C258        C  0.09274509  0.54987070  0.02857165     1.11600
C259        C  0.02146635  0.53017121  0.10419205     1.11700
C260        C  0.00199616  0.53670026  0.92246043     1.11600
O261        O  0.98950799  0.44516162  0.97619514    -0.78000
O262        O  0.01240422  0.44203149  0.04484456    -0.78100
O263        O  0.92515519  0.49085202  0.03060430    -0.78000
O264        O  0.08608138  0.47076781  0.99487505    -0.78000
O265        O  0.08620073  0.45153103  0.05307094    -0.78100
O266        O  0.91980063  0.47226666  0.97230633    -0.78000
O267        O  0.03152282  0.46882736  0.94080267    -0.78000
O268        O  0.97756718  0.47293344  0.08203254    -0.78100
Co269      Co  0.96731485  0.49346290  0.98217435     1.51500
Co270      Co  0.04637844  0.48362525  0.04270709     1.51700
Co271      Co  0.96910938  0.52008714  0.05252052     1.51600
Co272      Co  0.05189226  0.51068571  0.97304991     1.51500
O273        O  0.00982996  0.51148206  0.01256101    -1.40000
C274        C  0.00762478  0.44385361  0.94693037     1.11600
C275        C  0.99488849  0.44362923  0.07438456     1.11700
C276        C  0.90708788  0.47399835  0.00497469     1.11600
C277        C  0.09892486  0.44995335  0.02047368     1.11600
C278        C  0.21164232  0.10397921  0.36361856     0.05200
C279        C  0.24074072  0.09440838  0.38678900    -0.10900
C280        C  0.27538754  0.11109858  0.38363842     0.02700
C281        C  0.28084318  0.13818560  0.35639657    -0.09400
C282        C  0.25166323  0.14914016  0.33297431     0.05200
C283        C  0.21697675  0.13157783  0.33706630    -0.08800
H284        H  0.23649316  0.07328906  0.40721972     0.10800
H285        H  0.30775890  0.15077103  0.35342786     0.08400
H286        H  0.19451194  0.13843741  0.31896759     0.08200
C287        C  0.23945043  0.22802397  0.25968139     0.82300
N288        N  0.26561038  0.22288044  0.23328752    -0.76000
C289        C  0.26949427  0.24672557  0.20459471     0.84800
N290        N  0.24620405  0.27617784  0.20260851    -0.75900
C291        C  0.21971271  0.28193003  0.22894099     0.84900
N292        N  0.21662293  0.25744724  0.25700458    -0.77600
C293        C  0.09101973  0.38475483  0.21664167     0.05200
C294        C  0.12062775  0.35987222  0.21787065    -0.10900
C295        C  0.14131296  0.35507683  0.25045602     0.02700
C296        C  0.13145142  0.37642869  0.28185572    -0.09400
C297        C  0.10241291  0.40225862  0.28059809     0.05200
C298        C  0.08255405  0.40578899  0.24783852    -0.08800
H299        H  0.12662807  0.34342015  0.19386575     0.10800
H300        H  0.14642649  0.37295022  0.30724720     0.08400
H301        H  0.05999963  0.42498751  0.24666091     0.08200
C302        C  0.39875057  0.28203540  0.09371830     0.05200
C303        C  0.40252697  0.24976459  0.07340812    -0.10900
C304        C  0.37812804  0.22021928  0.07742427     0.02700
C305        C  0.34873573  0.22321848  0.10329736    -0.09400
C306        C  0.34377920  0.25623479  0.12414512     0.05200
C307        C  0.36915506  0.28545076  0.11844984    -0.08800
H308        H  0.42509112  0.24755951  0.05410277     0.10800
H309        H  0.32957532  0.20056312  0.10653986     0.08400
H310        H  0.36608151  0.31080340  0.13363310     0.08200
C311        C  0.78951203  0.27012974  0.74451694     0.82300
N312        N  0.76349920  0.26610998  0.77164685    -0.76000
C313        C  0.73880001  0.23719274  0.77044428     0.84800
N314        N  0.74051620  0.21273503  0.74197753    -0.75900
C315        C  0.76600257  0.21647751  0.71491732     0.84900
N316        N  0.79025946  0.24505535  0.71664170    -0.77600
C317        C  0.89678292  0.39875823  0.73793800     0.05200
C318        C  0.91778099  0.40380963  0.76991557    -0.10900
C319        C  0.91096114  0.38321047  0.80156967     0.02700
C320        C  0.88221628  0.35696103  0.80130215    -0.09400
C321        C  0.86057664  0.35033409  0.76954672     0.05200
C322        C  0.86830581  0.37168114  0.73767993    -0.08800
H323        H  0.93962886  0.42423010  0.77025121     0.10800
H324        H  0.87685458  0.34130187  0.82597697     0.08400
H325        H  0.85192792  0.36790329  0.71318255     0.08200
C326        C  0.62244267  0.22032667  0.89071198     0.05200
C327        C  0.65336905  0.22081282  0.86659485    -0.10900
C328        C  0.66220602  0.25285030  0.84583751     0.02700
C329        C  0.63929538  0.28366381  0.84951190    -0.09400
C330        C  0.60835029  0.28319124  0.87244908     0.05200
C331        C  0.60021369  0.25162649  0.89282040    -0.08800
H332        H  0.67091793  0.19705050  0.86491420     0.10800
H333        H  0.64566761  0.30840514  0.83437602     0.08400
H334        H  0.57668363  0.25167223  0.91103327     0.08200
C335        C  0.71909938  0.10953401  0.58627482     0.05200
C336        C  0.71638125  0.13635656  0.61416565    -0.10900
C337        C  0.74478063  0.14090612  0.64049593     0.02700
C338        C  0.77546450  0.11729112  0.63869421    -0.09400
C339        C  0.77742638  0.08984360  0.61139651     0.05200
C340        C  0.74945175  0.08650856  0.58539996    -0.08800
H341        H  0.69239708  0.15377479  0.61526628     0.10800
H342        H  0.79715696  0.11956839  0.65890231     0.08400
H343        H  0.75122557  0.06549296  0.56428239     0.08200
C344        C  0.74785364  0.76184880  0.26007977     0.82300
N345        N  0.77234542  0.73496047  0.26819721    -0.76000
C346        C  0.77874435  0.70653310  0.24457255     0.84800
N347        N  0.75945633  0.70514987  0.21203337    -0.75900
C348        C  0.73464471  0.73221832  0.20329081     0.84900
N349        N  0.72918338  0.76009830  0.22771824    -0.77600
C350        C  0.72215828  0.86969376  0.38448299     0.05200
C351        C  0.72447133  0.84083826  0.35837746    -0.10900
C352        C  0.75778562  0.83445173  0.33923255     0.02700
C353        C  0.78821672  0.85762641  0.34636083    -0.09400
C354        C  0.78574997  0.88692417  0.37135171     0.05200
C355        C  0.75282849  0.89260461  0.39034920    -0.08800
H356        H  0.70110368  0.82281617  0.35396124     0.10800
H357        H  0.81402636  0.85278832  0.33235078     0.08400
H358        H  0.75121097  0.91477263  0.41019238     0.08200
C359        C  0.90889974  0.59081601  0.23238158     0.05200
C360        C  0.90866447  0.57526557  0.26723139    -0.10900
C361        C  0.88177323  0.58410999  0.29308752     0.02700
C362        C  0.85428412  0.61018586  0.28370006    -0.09400
C363        C  0.85363438  0.62658150  0.24809352     0.05200
C364        C  0.88130725  0.61603871  0.22277904    -0.08800
H365        H  0.92970835  0.55558632  0.27426640     0.10800
H366        H  0.83328065  0.61689479  0.30356406     0.08400
H367        H  0.88150022  0.62766510  0.19553666     0.08200
C368        C  0.63057897  0.78964413  0.07386150     0.05200
C369        C  0.60733028  0.75916993  0.07086929    -0.10900
C370        C  0.61148220  0.72865483  0.09341914     0.02700
C371        C  0.64044993  0.72768274  0.11920912    -0.09400
C372        C  0.66482674  0.75795182  0.12339280     0.05200
C373        C  0.65918277  0.78920917  0.10052453    -0.08800
H374        H  0.58498419  0.75951760  0.05112830     0.10800
H375        H  0.64292461  0.70413356  0.13697584     0.08400
H376        H  0.67671032  0.81314027  0.10375382     0.08200
C377        C  0.22590377  0.73165407  0.30201992     0.82300
N378        N  0.25100816  0.75980564  0.30233040    -0.76000
C379        C  0.27716615  0.76252318  0.27535543     0.84800
N380        N  0.27815251  0.73650415  0.24813990    -0.75900
C381        C  0.25338104  0.70816247  0.24767870     0.84900
N382        N  0.22755305  0.70621452  0.27461979    -0.77600
C383        C  0.40276902  0.87059422  0.27183423     0.05200
C384        C  0.37493587  0.84358467  0.27505703    -0.10900
C385        C  0.35069472  0.83633281  0.24541568     0.02700
C386        C  0.35495095  0.85705381  0.21285437    -0.09400
C387        C  0.38228896  0.88456439  0.21009851     0.05200
C388        C  0.40587680  0.89095884  0.23965282    -0.08800
H389        H  0.37305233  0.82758125  0.29992409     0.10800
H390        H  0.33714583  0.85160965  0.18962779     0.08400
H391        H  0.42730309  0.91173027  0.23738756     0.08200
C392        C  0.09832420  0.77125249  0.41311892     0.05200
C393        C  0.12690098  0.77591453  0.38727569    -0.10900
C394        C  0.15246170  0.74751282  0.38030569     0.02700
C395        C  0.14909895  0.71456330  0.40073609    -0.09400
C396        C  0.12101566  0.71035219  0.42721069     0.05200
C397        C  0.09586656  0.73857296  0.43274054    -0.08800
H398        H  0.12902965  0.80146099  0.37232165     0.10800
H399        H  0.16861800  0.69269491  0.39677108     0.08400
H400        H  0.07417282  0.73514930  0.45286455     0.08200
C401        C  0.30509720  0.59424108  0.12671523     0.05200
C402        C  0.27177307  0.59020800  0.10758322    -0.10900
C403        C  0.24118955  0.61172844  0.11644107     0.02700
C404        C  0.24388578  0.63756832  0.14519012    -0.09400
C405        C  0.27703457  0.64239097  0.16508904     0.05200
C406        C  0.30768845  0.62069201  0.15517042    -0.08800
H407        H  0.26961606  0.57016492  0.08560914     0.10800
H408        H  0.22030514  0.65433774  0.15149078     0.08400
H409        H  0.33340102  0.62411708  0.16985600     0.08200
O410        O  0.99299853  0.96325076  0.55733079    -0.78000
O411        O  0.01857407  0.03146408  0.55594086    -0.78000
O412        O  0.08359180  0.97936451  0.51393783    -0.78000
O413        O  0.92299649  0.01502953  0.52409203    -0.78000
O414        O  0.08941399  0.03766325  0.53250441    -0.78100
O415        O  0.92017471  0.95638611  0.54194085    -0.78000
O416        O  0.97867421  0.06798026  0.53131481    -0.78000
O417        O  0.03003635  0.92687083  0.52796157    -0.78100
C418        C  0.01072782  0.93389530  0.55636352     1.11700
C419        C  0.00069447  0.06062084  0.55749668     1.11600
C420        C  0.10109249  0.00465871  0.53184477     1.11700
C421        C  0.90804187  0.98913570  0.54322800     1.11600
O422        O  0.92995417  0.96178026  0.47011081    -0.78000
O423        O  0.07098291  0.03232963  0.46224334    -0.78100
O424        O  0.00617850  0.93158437  0.45111272    -0.78000
O425        O  0.99199860  0.06159642  0.45191327    -0.78000
O426        O  0.03200451  0.08117864  0.49211203    -0.78100
O427        O  0.97211499  0.91332569  0.49657669    -0.78000
O428        O  0.93589877  0.01444239  0.44354585    -0.78000
O429        O  0.06099371  0.98005578  0.43536003    -0.78100
Co430      Co  0.96279401  0.96678518  0.51325960     1.51500
Co431      Co  0.04325427  0.02782579  0.50867484     1.51700
Co432      Co  0.04216982  0.95734552  0.48175016     1.51600
Co433      Co  0.96053493  0.03687187  0.48723857     1.51500
O434        O  0.00167467  0.99715256  0.48849475    -1.40000
C435        C  0.92246620  0.98261742  0.44413445     1.11600
C436        C  0.07496085  0.01177184  0.43508064     1.11700
C437        C  0.99002140  0.90593511  0.46730422     1.11600
C438        C  0.01137146  0.08725900  0.46423343     1.11600
C439        C  0.00075197  0.86925961  0.45661000    -0.16400
C440        C  0.01979856  0.84456296  0.44493343     0.07700
C441        C  0.04702968  0.82007169  0.43102591     0.09500
C442        C  0.07110410  0.79939495  0.42085479    -0.17200
C443        C  0.25200395  0.68019052  0.21736664    -0.14300
C444        C  0.28041636  0.67078314  0.19528961    -0.29500
H445        H  0.22614948  0.66538439  0.21426339     0.14700
H446        H  0.30725464  0.68315375  0.20033647     0.15300
C447        C  0.19729248  0.72661358  0.33146622    -0.14300
C448        C  0.18295062  0.75361522  0.35265175    -0.29500
H449        H  0.18567029  0.69914941  0.33397264     0.14700
H450        H  0.19221456  0.78166627  0.34799541     0.15300
C451        C  0.30478672  0.79344388  0.27631384    -0.14300
C452        C  0.32284939  0.80546414  0.24606691    -0.29500
H453        H  0.30922018  0.80747747  0.30227249     0.14700
H454        H  0.31585744  0.79298908  0.21989333     0.15300
C455        C  0.81728544  0.91063297  0.37871779    -0.16400
C456        C  0.84289754  0.93050633  0.38719855     0.07700
C457        C  0.87233432  0.95282255  0.40073794     0.09500
C458        C  0.89654993  0.96928907  0.41696398    -0.17200
C459        C  0.71101254  0.72993123  0.16895323    -0.14300
C460        C  0.69303276  0.75934361  0.15429574    -0.29500
H461        H  0.70767654  0.70327009  0.15606595     0.14700
H462        H  0.69882777  0.78621672  0.16589629     0.15300
C463        C  0.80534533  0.67700784  0.25702082    -0.14300
C464        C  0.82432843  0.65350746  0.23510675    -0.29500
H465        H  0.81145299  0.67664811  0.28606572     0.14700
H466        H  0.82020874  0.65581221  0.20578137     0.15300
C467        C  0.74008495  0.79239187  0.28666517    -0.14300
C468        C  0.76323259  0.80219455  0.31408137    -0.29500
H469        H  0.71534849  0.80849970  0.28238176     0.14700
H470        H  0.78933619  0.78790913  0.31625063     0.15300
C471        C  0.87813785  0.99957424  0.56693475    -0.16400
C472        C  0.85544841  0.01663378  0.58412378     0.07700
C473        C  0.83023128  0.04172520  0.59993278     0.09500
C474        C  0.80769528  0.06442088  0.60865904    -0.17200
C475        C  0.74084201  0.16881913  0.67080512    -0.14300
C476        C  0.76929644  0.18879458  0.68454459    -0.29500
H477        H  0.71329622  0.17416969  0.68106814     0.14700
H478        H  0.79623633  0.18590895  0.67193222     0.15300
C479        C  0.70959801  0.23083159  0.79931064    -0.14300
C480        C  0.69578477  0.25717908  0.82149579    -0.29500
H481        H  0.69659397  0.20395444  0.79976145     0.14700
H482        H  0.70705078  0.28467016  0.81869060     0.15300
C483        C  0.81694143  0.30164903  0.74288789    -0.14300
C484        C  0.82983445  0.32169103  0.77168674    -0.29500
H485        H  0.82949745  0.30646655  0.71618711     0.14700
H486        H  0.81936192  0.31486205  0.79885440     0.15300
C487        C  0.29845212  0.23858051  0.17546502    -0.14300
C488        C  0.31182667  0.26297413  0.15049116    -0.29500
H489        H  0.31077781  0.21174542  0.17620120     0.14700
H490        H  0.30134605  0.29061784  0.15169329     0.15300
C491        C  0.17086600  0.32578990  0.25349518    -0.14300
C492        C  0.19258156  0.31325351  0.22550710    -0.29500
H493        H  0.17506267  0.31419684  0.28052006     0.14700
H494        H  0.19054044  0.32633807  0.19894747     0.15300
C495        C  0.17684763  0.08419092  0.36745452    -0.16400
C496        C  0.15015325  0.06530221  0.37486894     0.07700
C497        C  0.12094936  0.04266907  0.38847461     0.09500
C498        C  0.09796885  0.02545325  0.40561850    -0.17200
C499        C  0.25875992  0.17696216  0.30295161    -0.14300
C500        C  0.23321034  0.20063086  0.28998488    -0.29500
H501        H  0.28649579  0.17876113  0.29198131     0.14700
H502        H  0.20633352  0.20094743  0.30299751     0.15300
C503        C  0.99331809  0.42177143  0.91653216    -0.16400
C504        C  0.97615396  0.40889924  0.89063157     0.07700
C505        C  0.95341286  0.39748741  0.86031598     0.09500
C506        C  0.93366214  0.38979631  0.83423033    -0.17200
C507        C  0.93773628  0.57960413  0.20695924    -0.16400
C508        C  0.96254748  0.56755758  0.18814190     0.07700
C509        C  0.99039071  0.55235274  0.16504520     0.09500
C510        C  0.00995609  0.54029623  0.14086065    -0.17200
C511        C  0.06825881  0.38892823  0.18385291    -0.16400
C512        C  0.04762277  0.39534881  0.15834861     0.07700
C513        C  0.02370260  0.40632382  0.12918465     0.09500
C514        C  0.00640079  0.41988730  0.10411828    -0.17200
C515        C  0.20701124  0.60664880  0.09595448    -0.16400
C516        C  0.17932882  0.59987013  0.07829696     0.07700
C517        C  0.14755781  0.58845017  0.05789758     0.09500
C518        C  0.12137417  0.57441326  0.04224819    -0.17200
C519        C  0.87346735  0.45539188  0.01600632    -0.16400
C520        C  0.84890911  0.44058574  0.03325590     0.07700
C521        C  0.82235040  0.42478124  0.05758035     0.09500
C522        C  0.79914399  0.41340307  0.07881531    -0.17200
C523        C  0.93403183  0.18384507  0.39796848    -0.16400
C524        C  0.95838935  0.16589876  0.41208650     0.07700
C525        C  0.98533372  0.14512599  0.43173700     0.09500
C526        C  0.00350390  0.12290391  0.44867564    -0.17200
C527        C  0.70399404  0.20383470  0.23609137    -0.14300
C528        C  0.69391104  0.18019552  0.26279624    -0.29500
H529        H  0.68885536  0.20340486  0.21028205     0.14700
H530        H  0.70707056  0.18266866  0.28959056     0.15300
C531        C  0.76326431  0.31894538  0.19169434    -0.14300
C532        C  0.73439776  0.33206901  0.17235401    -0.29500
H533        H  0.78949061  0.33330250  0.18985149     0.14700
H534        H  0.70756480  0.31943702  0.17660159     0.15300
C535        C  0.81540017  0.25671676  0.29890654    -0.14300
C536        C  0.82658373  0.22781746  0.31933252    -0.29500
H537        H  0.82868717  0.28308342  0.30359854     0.14700
H538        H  0.81613748  0.20053481  0.31298448     0.15300
C539        C  0.00868247  0.55075481  0.88591657    -0.16400
C540        C  0.02435468  0.56371351  0.85944696     0.07700
C541        C  0.04831575  0.57808413  0.83181286     0.09500
C542        C  0.07028312  0.58827992  0.80876312    -0.17200
C543        C  0.19432499  0.91917758  0.59512305    -0.16400
C544        C  0.17559631  0.94451016  0.58459474     0.07700
C545        C  0.15385310  0.97283678  0.56885494     0.09500
C546        C  0.13240582  0.99259157  0.55296304    -0.17200
C547        C  0.19139824  0.68171886  0.73182066    -0.14300
C548        C  0.17840843  0.65905573  0.75836512    -0.29500
H549        H  0.17940192  0.67972108  0.70464809     0.14700
H550        H  0.18854804  0.66309525  0.78610080     0.15300
C551        C  0.25838180  0.79316665  0.68790432    -0.14300
C552        C  0.23269588  0.80629351  0.66462382    -0.29500
H553        H  0.28591069  0.80515790  0.68706169     0.14700
H554        H  0.20435097  0.79678913  0.66757565     0.15300
C555        C  0.31912607  0.76172848  0.81540459    -0.14300
C556        C  0.29748366  0.73352282  0.80320480    -0.29500
H557        H  0.31517550  0.78868168  0.80372246     0.14700
H558        H  0.29929027  0.70721426  0.81669557     0.15300
C559        C  0.62233180  0.82093105  0.04990787    -0.16400
C560        C  0.60946018  0.84332225  0.02855298     0.07700
C561        C  0.59089179  0.86856699  0.00449921     0.09500
C562        C  0.57395425  0.89209012  0.98772959    -0.17200
C563        C  0.39657934  0.81703560  0.91823094    -0.16400
C564        C  0.40802478  0.84068406  0.93945956     0.07700
C565        C  0.42366069  0.86813033  0.96369729     0.09500
C566        C  0.43862626  0.89288579  0.98115322    -0.17200
C567        C  0.57826593  0.03859034  0.10447952    -0.16400
C568        C  0.59511901  0.05364697  0.12908275     0.07700
C569        C  0.61053693  0.07296269  0.15952000     0.09500
C570        C  0.62054070  0.08944234  0.18678110    -0.17200
C571        C  0.43208073  0.96573154  0.10217480    -0.16400
C572        C  0.41456967  0.94805259  0.12440786     0.07700
C573        C  0.39823971  0.92533412  0.15183591     0.09500
C574        C  0.38813854  0.90591223  0.17694823    -0.17200
C575        C  0.43493532  0.11697274  0.99136322    -0.16400
C576        C  0.41758252  0.14015429  0.00855101     0.07700
C577        C  0.39854255  0.16523341  0.03282898     0.09500
C578        C  0.38554475  0.18787434  0.05415853    -0.17200
C579        C  0.57030803  0.11640699  0.98091733    -0.16400
C580        C  0.58522746  0.14014444  0.96211248     0.07700
C581        C  0.60123013  0.16622504  0.93661698     0.09500
C582        C  0.61293262  0.18912459  0.91478589    -0.17200
C583        C  0.01397939  0.08945724  0.58214098    -0.16400
C584        C  0.03204486  0.11314989  0.59784266     0.07700
C585        C  0.05669974  0.14070605  0.61217441     0.09500
C586        C  0.07814462  0.16497900  0.62146940    -0.17200
C587        C  0.39632340  0.07550289  0.80367742    -0.16400
C588        C  0.40665004  0.05233136  0.82529949     0.07700
C589        C  0.42233319  0.02562485  0.84934982     0.09500
C590        C  0.43844557  0.00671680  0.87156519    -0.17200
C591        C  0.12695204  0.42394136  0.01000679    -0.16400
C592        C  0.14870259  0.40448927  0.99403122     0.07700
C593        C  0.17388046  0.38588314  0.97060111     0.08900
C594        C  0.19717272  0.37543259  0.94921265    -0.17200
C595        C  0.20066571  0.25265180  0.70636875    -0.14300
C596        C  0.18569814  0.22363633  0.68809057    -0.29500
H597        H  0.18940283  0.27961549  0.70155352     0.14700
H598        H  0.19478825  0.19640674  0.69550518     0.15300
C599        C  0.32388870  0.17696284  0.74024793    -0.14300
C600        C  0.31079928  0.19675997  0.76890507    -0.29500
H601        H  0.31265693  0.18243173  0.71316464     0.14700
H602        H  0.32381228  0.19355707  0.79554957     0.15300
C603        C  0.24465907  0.30321751  0.82366877    -0.14300
C604        C  0.27117138  0.31547906  0.84689116    -0.29500
H605        H  0.21758928  0.31543301  0.82566410     0.14700
H606        H  0.29908747  0.30584391  0.84297663     0.15300
C607        C  0.83353238  0.62830615  0.92915933    -0.16400
C608        C  0.86077547  0.62383185  0.94796819     0.07700
C609        C  0.89136731  0.61327112  0.97008569     0.09500
C610        C  0.91560328  0.59768776  0.98671773    -0.17200
C611        C  0.99881793  0.90406217  0.58035864    -0.16400
C612        C  0.98200024  0.87912125  0.59535590     0.07700
C613        C  0.95903279  0.84986794  0.60910183     0.09500
C614        C  0.93926712  0.82408876  0.61801869    -0.17200
C615        C  0.77776571  0.69961435  0.81001776    -0.14300
C616        C  0.75181945  0.68457536  0.83240733    -0.29500
H617        H  0.80545574  0.68862004  0.81091882     0.14700
H618        H  0.72353528  0.69357064  0.82941897     0.15300
C619        C  0.82056969  0.77285925  0.70240543    -0.14300
C620        C  0.84496437  0.74782142  0.68969660    -0.29500
H621        H  0.81979120  0.79956260  0.68936911     0.14700
H622        H  0.84365584  0.72036453  0.70111204     0.15300
C623        C  0.57461516  0.00484727  0.87415234    -0.16400
C624        C  0.59282805  0.98587161  0.85346781     0.07700
C625        C  0.61079227  0.95863417  0.83136566     0.09500
C626        C  0.62245674  0.93471916  0.81100209    -0.17200
C627        C  0.69670297  0.83501078  0.74528641    -0.14300
C628        C  0.70735901  0.80975754  0.77026676    -0.29500
H629        H  0.71064426  0.83528615  0.71890441     0.14700
H630        H  0.69180203  0.80741455  0.79561337     0.15300
C631        C  0.42604488  0.31107939  0.08815440    -0.16400
C632        C  0.45060559  0.33226346  0.07955968     0.07700
C633        C  0.47871010  0.35630521  0.06589664     0.09500
C634        C  0.49871333  0.37871806  0.05111995    -0.17200
C635        C  0.53231714  0.40131323  0.90611827    -0.16400
C636        C  0.54733224  0.37505958  0.89213861     0.07700
C637        C  0.56755470  0.34313182  0.88199182     0.09500
C638        C  0.58578251  0.31583041  0.87650933    -0.17200
C639        C  0.67249397  0.44047869  0.11390348    -0.16400
C640        C  0.64804656  0.46133121  0.10519977     0.07700
C641        C  0.62056556  0.48528633  0.09096792     0.09500
C642        C  0.59692533  0.50236949  0.07492186    -0.17200
C643        C  0.63545565  0.50938117  0.94904403    -0.16400
C644        C  0.66091325  0.52810258  0.93719461     0.07700
C645        C  0.68709956  0.55417610  0.92244037     0.09500
C646        C  0.70887130  0.57714081  0.91068741    -0.17200
C647        C  0.58425812  0.69950620  0.08977873    -0.16400
C648        C  0.55927104  0.67876189  0.08160872     0.07700
C649        C  0.53087298  0.65556711  0.06743065     0.09500
C650        C  0.51104309  0.63358669  0.05183559    -0.17200
C651        C  0.41976271  0.69016194  0.87668393    -0.16400
C652        C  0.43908231  0.66356699  0.88156985     0.07700
C653        C  0.46156129  0.63317956  0.89134654     0.09500
C654        C  0.47855843  0.60836554  0.90541430    -0.17200
C655        C  0.33618806  0.57098296  0.11643712    -0.16400
C656        C  0.36047540  0.55083161  0.10531563     0.07700
C657        C  0.38850892  0.52797191  0.08969954     0.09500
C658        C  0.41274404  0.51150287  0.07352330    -0.17200
C659        C  0.31314193  0.43057554  0.91265597    -0.16400
C660        C  0.33204810  0.45678882  0.92155162     0.07700
C661        C  0.35491528  0.48599807  0.93477672     0.09500
C662        C  0.37905353  0.50603080  0.94656626    -0.17200
C663        C  0.05400946  0.48720865  0.39121664    -0.16400
C664        C  0.06623683  0.46979180  0.36504502     0.07700
C665        C  0.08059068  0.44593435  0.33657804     0.09500
C666        C  0.09188086  0.42537691  0.31230523    -0.17200
C667        C  0.92273935  0.50396713  0.40638858    -0.16400
C668        C  0.90745513  0.52158827  0.38228970     0.07700
C669        C  0.89279044  0.54516903  0.35414236     0.09500
C670        C  0.88406809  0.56475669  0.32835413    -0.17200
C671        C  0.11421513  0.55614050  0.68631956    -0.16400
C672        C  0.10527340  0.53358480  0.66310787     0.07700
C673        C  0.09015988  0.50781874  0.63723839     0.09500
C674        C  0.07388510  0.48985575  0.61398875    -0.17200
C675        C  0.94425450  0.48754646  0.63119270    -0.16400
C676        C  0.93128227  0.46906655  0.65612063     0.07700
C677        C  0.91637840  0.44390987  0.68293939     0.09500
C678        C  0.90542306  0.42235054  0.70632089    -0.17200
C679        C  0.06559526  0.37179320  0.53928066    -0.16400
C680        C  0.08273260  0.34779373  0.55475260     0.07700
C681        C  0.09917738  0.31885765  0.57542846     0.09500
C682        C  0.11012845  0.29319667  0.59363412    -0.17200
C683        C  0.87938526  0.30291712  0.42229249    -0.16400
C684        C  0.88482836  0.32937374  0.44164670     0.07700
C685        C  0.89761260  0.35882516  0.46373228     0.09500
C686        C  0.91474792  0.38230770  0.47994550    -0.17200
C687        C  0.94389015  0.61553615  0.51958168    -0.16400
C688        C  0.93205973  0.64173606  0.53671993     0.07700
C689        C  0.92071359  0.67111226  0.56044073     0.09500
C690        C  0.91267651  0.69596914  0.58143696    -0.17200
C691        C  0.11683773  0.67769825  0.44972150    -0.16400
C692        C  0.10772999  0.65334466  0.47058184     0.07700
C693        C  0.09229476  0.62630300  0.49440825     0.09500
C694        C  0.07538798  0.60277026  0.51100847    -0.17200
C695        C  0.42831167  0.11154326  0.67888419    -0.16400
C696        C  0.44821157  0.10206960  0.65391322     0.07700
C697        C  0.47022714  0.08712159  0.62526856     0.09500
C698        C  0.48496832  0.07081117  0.60028099    -0.17200
C699        C  0.58662644  0.89426440  0.68871485    -0.16400
C700        C  0.56478393  0.90284276  0.66516003     0.07700
C701        C  0.53995844  0.91635300  0.63827671     0.09500
C702        C  0.52210437  0.92999729  0.61385077    -0.17200
C703        C  0.30482689  0.09883981  0.40819162    -0.16400
C704        C  0.32686914  0.08540512  0.42952173     0.07700
C705        C  0.35243257  0.06754410  0.45364297     0.09500
C706        C  0.37604579  0.05143253  0.47103096    -0.17200
C707        C  0.39034350  0.90694833  0.50953716    -0.16400
C708        C  0.36626866  0.88907697  0.52431521     0.07700
C709        C  0.33814411  0.87323939  0.54662510     0.09500
C710        C  0.31283745  0.86485970  0.56671838    -0.17200
C711        C  0.59066264  0.10601849  0.31683871    -0.16400
C712        C  0.56883433  0.09613259  0.33995146     0.07700
C713        C  0.54277896  0.08221697  0.36552587     0.09500
C714        C  0.52322472  0.06721879  0.38785207    -0.17200
C715        C  0.49364805  0.92337086  0.37011807    -0.16400
C716        C  0.47759749  0.90634492  0.34641270     0.07700
C717        C  0.45244506  0.88925837  0.32182118     0.09500
C718        C  0.42918833  0.87814035  0.30066722    -0.17200
C719        C  0.69096496  0.10363944  0.55857061    -0.16400
C720        C  0.67011287  0.09289141  0.53479684     0.07700
C721        C  0.64558018  0.07557892  0.50957730     0.09500
C722        C  0.62182515  0.05802168  0.49396450    -0.17200
C723        C  0.61149058  0.91504330  0.46700687    -0.16400
C724        C  0.63599127  0.90001216  0.44996623     0.07700
C725        C  0.66422356  0.88566802  0.42661869     0.09500
C726        C  0.68922498  0.87627773  0.40647026    -0.17200
loop_ 
_geom_bond_atom_site_label_1 
_geom_bond_atom_site_label_2 
_geom_bond_distance 
_geom_bond_site_symmetry_2 
_ccdc_geom_bond_type 
O1            C9   1.239       .  A
O1          Co21   1.952       .  S
O2           C10   1.248       .  A
O2          Co22   1.941       .  S
O3           C11   1.241       .  A
O3          Co23   1.950       .  S
O4           C12   1.257       .  A
O4          Co24   1.972       .  S
O5           C11   1.266       .  A
O5          Co22   2.051       .  S
O6           C12   1.269       .  A
O6          Co21   2.026       .  S
O7           C10   1.277       .  A
O7          Co24   2.067       .  S
O8            C9   1.269       .  A
O8          Co23   2.070       .  S
C9          C723   1.457       .  S
C10         C707   1.450       .  S
C11         C702   1.447       .  S
C12         C715   1.438       .  S
O13          C26   1.234       .  A
O13         Co21   1.944   1_545  S
O14          C27   1.248       .  A
O14         Co22   1.945   1_545  S
O15          C28   1.258       .  A
O15         Co23   1.976   1_545  S
O16          C29   1.239       .  A
O16         Co24   1.957   1_545  S
O17          C29   1.266       .  A
O17         Co22   2.066   1_545  S
O18          C28   1.269       .  A
O18         Co21   2.030   1_545  S
O19          C26   1.266       .  A
O19         Co24   2.059   1_545  S
O20          C27   1.275       .  A
O20         Co23   2.058   1_545  S
Co21         O25   2.028       .  S
Co22         O25   2.140       .  S
Co23         O25   2.156       .  S
Co24         O25   2.149       .  S
C26         C714   1.441       .  S
C27         C698   1.446       .  S
C28         C722   1.442       .  S
C29         C706   1.464       .  S
O30          C38   1.285       .  A
O30         Co50   2.062   1_655  S
O31          C39   1.264       .  A
O31         Co51   1.990   1_655  S
O32          C40   1.263       .  A
O32         Co52   1.956       .  S
O33          C41   1.247       .  A
O33         Co53   1.952       .  S
O34          C40   1.294       .  A
O34         Co51   2.100   1_655  S
O35          C41   1.276       .  A
O35         Co50   2.079   1_655  S
O36          C39   1.265       .  A
O36         Co53   1.989       .  S
O37          C38   1.276       .  A
O37         Co52   1.948       .  S
C38         C687   1.459       .  S
C39         C686   1.437       .  S
C40         C667   1.469       .  S
C41         C675   1.468       .  S
O42          C55   1.258       .  A
O42         Co50   1.952       .  S
O43          C56   1.249       .  A
O43         Co51   1.954       .  S
O44          C57   1.284       .  A
O44         Co52   2.060   1_455  S
O45          C58   1.265       .  A
O45         Co53   2.001   1_455  S
O46          C58   1.271       .  A
O46         Co51   2.013       .  S
O47          C57   1.275       .  A
O47         Co50   1.942       .  S
O48          C55   1.288       .  A
O48         Co53   2.083   1_455  S
O49          C56   1.277       .  A
O49         Co52   2.080   1_455  S
Co50         O54   2.042   1_455  S
Co51         O54   2.033   1_455  S
Co52         O54   2.047       .  S
Co53         O54   2.043       .  S
C55         C674   1.454       .  S
C56         C663   1.472       .  S
C57         C694   1.450       .  S
C58         C679   1.458       .  S
O59          C67   1.255       .  A
O59         Co79   1.954       .  S
O60          C68   1.253       .  A
O60         Co80   1.949       .  S
O61          C69   1.290       .  A
O61         Co81   2.061   1_554  S
O62          C70   1.291       .  A
O62         Co82   2.065   1_554  S
O63          C69   1.282       .  A
O63         Co80   1.929       .  S
O64          C70   1.279       .  A
O64         Co79   1.916       .  S
O65          C68   1.277       .  A
O65         Co82   2.063   1_554  S
O66          C67   1.277       .  A
O66         Co81   2.067   1_554  S
C67         C658   1.461       .  S
C68         C642   1.453       .  S
C69         C634   1.452       .  S
C70         C650   1.444       .  S
O71          C84   1.249       .  A
O71         Co79   1.982   1_556  S
O72          C85   1.251       .  A
O72         Co80   1.982   1_556  S
O73          C86   1.252       .  A
O73         Co81   1.952       .  S
O74          C87   1.253       .  A
O74         Co82   1.954       .  S
O75          C87   1.287       .  A
O75         Co80   2.091   1_556  S
O76          C86   1.281       .  A
O76         Co79   2.069   1_556  S
O77          C84   1.259       .  A
O77         Co82   2.004       .  S
O78          C85   1.260       .  A
O78         Co81   2.003       .  S
Co79         O83   2.012   1_554  S
Co80         O83   2.008   1_554  S
Co81         O83   2.095       .  S
Co82         O83   2.096       .  S
C84         C654   1.450       .  S
C85         C635   1.451       .  S
C86         C662   1.445       .  S
C87         C643   1.465       .  S
C88         C626   1.465       .  S
C88          C89   1.398       .  A
C88          C93   1.424       .  A
C89          C90   1.395       .  A
C89          H94   1.086       .  S
C90         C699   1.454       .  S
C90          C91   1.408       .  A
C91          C92   1.416       .  A
C91          H95   1.085       .  S
C92          C93   1.426       .  A
C92         C627   1.513       .  S
C93          H96   1.082       .  S
C97         C615   1.512       .  S
C97          N98   1.370       .  A
C97         N102   1.369       .  A
N98          C99   1.369       .  A
C99         C619   1.514       .  S
C99         N100   1.369       .  A
N100        C101   1.369       .  A
C101        C628   1.513       .  S
C101        N102   1.370       .  A
C103        C690   1.466       .  S
C103        C104   1.411       .  A
C103        C108   1.403       .  A
C104        C105   1.417       .  A
C104        H109   1.084       .  S
C105        C106   1.424       .  A
C105        C620   1.517       .  S
C106        C107   1.422       .  A
C106        H110   1.082       .  S
C107        C614   1.471       .  S
C107        C108   1.406       .  A
C108        H111   1.085       .  S
C112        C607   1.461       .  S
C112        C113   1.412       .  A
C112        C117   1.405       .  A
C113        C114   1.418       .  A
C113        H118   1.082       .  S
C114        C115   1.425       .  A
C114        C616   1.520       .  S
C115        C116   1.420       .  A
C115        H119   1.084       .  S
C116        C646   1.475       .  S
C116        C117   1.403       .  A
C117        H120   1.085       .  S
C121        C600   1.510       .  S
C121        N122   1.376       .  A
C121        N126   1.371       .  A
N122        C123   1.372       .  A
C123        C595   1.507       .  S
C123        N124   1.363       .  A
N124        C125   1.361       .  A
C125        C603   1.506       .  S
C125        N126   1.366       .  A
C127        C659   1.455       .  S
C127        C128   1.412       .  A
C127        C132   1.393       .  A
C128        C129   1.418       .  A
C128        H133   1.084       .  S
C129        C130   1.422       .  A
C129        C604   1.511       .  S
C130        C131   1.416       .  A
C130        H134   1.083       .  S
C131        C594   1.454       .  S
C131        C132   1.396       .  A
C132        H135   1.086       .  S
C136        C587   1.463       .  S
C136        C137   1.420       .  A
C136        C141   1.399       .  A
C137        C138   1.425       .  A
C137        H142   1.082       .  S
C138        C139   1.417       .  A
C138        C599   1.516       .  S
C139        C140   1.409       .  A
C139        H143   1.085       .  S
C140        C695   1.456       .  S
C140        C141   1.397       .  A
C141        H144   1.086       .  S
C145        C586   1.466       .  S
C145        C146   1.414       .  A
C145        C150   1.402       .  A
C146        C147   1.421       .  A
C146        H151   1.083       .  S
C147        C148   1.423       .  A
C147        C596   1.520       .  S
C148        C149   1.416       .  A
C148        H152   1.082       .  S
C149        C682   1.464       .  S
C149        C150   1.403       .  A
C150        H153   1.085       .  S
O154        C162   1.277   1_565  A
O154       Co174   2.042       .  S
O155        C163   1.265       .  A
O155       Co175   1.995       .  S
O156        C164   1.258       .  A
O156       Co176   1.951       .  S
O157        C165   1.248       .  A
O157       Co177   1.954   1_556  S
O158        C164   1.294   1_554  A
O158       Co175   2.109       .  S
O159        C165   1.277       .  A
O159       Co174   2.079       .  S
O160        C163   1.268   1_565  A
O160       Co177   1.998       .  S
O161        C162   1.279       .  A
O161       Co176   1.963       .  S
C162        C623   1.456       .  S
C163        C567   1.447       .  S
C164        C579   1.473       .  S
C165        C562   1.466       .  S
O166        C179   1.261       .  A
O166       Co174   1.953       .  S
O167        C180   1.248       .  A
O167       Co175   1.954   1_556  S
O168        C181   1.278   1_545  A
O168       Co176   2.043       .  S
O169        C182   1.265       .  A
O169       Co177   1.995       .  S
O170        C182   1.270   1_545  A
O170       Co175   2.007       .  S
O171        C181   1.277       .  A
O171       Co174   1.960       .  S
O172        C179   1.292   1_554  A
O172       Co177   2.096       .  S
O173        C180   1.280       .  A
O173       Co176   2.088       .  S
Co174       O178   2.044   1_566  S
Co175       O178   2.038       .  S
Co176       O178   2.046   1_556  S
Co177       O178   2.038   1_565  S
C179        C566   1.466       .  S
C180        C575   1.471       .  S
C181        C590   1.455   1_565  S
C182        C571   1.452       .  S
C183        C556   1.507       .  S
C183        N184   1.370       .  A
C183        N188   1.364       .  A
N184        C185   1.370       .  A
C185        C547   1.512       .  S
C185        N186   1.370       .  A
N186        C187   1.368       .  A
C187        C551   1.502       .  S
C187        N188   1.365       .  A
C189        C651   1.459       .  S
C189        C190   1.409       .  A
C189        C194   1.405       .  A
C190        C191   1.415       .  A
C190        H195   1.084       .  S
C191        C192   1.424       .  A
C191        C555   1.514       .  S
C192        C193   1.419       .  A
C192        H196   1.083       .  S
C193        C563   1.473       .  S
C193        C194   1.404       .  A
C194        H197   1.085       .  S
C198        C543   1.458       .  S
C198        C199   1.413       .  A
C198        C203   1.396       .  A
C199        C200   1.419       .  A
C199        H204   1.085       .  S
C200        C201   1.420       .  A
C200        C552   1.509       .  S
C201        C202   1.413       .  A
C201        H205   1.082       .  S
C202        C710   1.455       .  S
C202        C203   1.398       .  A
C203        H206   1.085       .  S
C207        C542   1.460       .  S
C207        C208   1.397       .  A
C207        C212   1.412       .  A
C208        C209   1.400       .  A
C208        H213   1.085       .  S
C209        C671   1.462       .  S
C209        C210   1.419       .  A
C210        C211   1.423       .  A
C210        H214   1.083       .  S
C211        C212   1.419       .  A
C211        C548   1.515       .  S
C212        H215   1.083       .  S
C216        C531   1.507       .  S
C216        N217   1.362       .  A
C216        N221   1.364       .  A
N217        C218   1.365       .  A
C218        C535   1.500       .  S
C218        N219   1.367       .  A
N219        C220   1.371       .  A
C220        C527   1.497       .  S
C220        N221   1.370       .  A
C222        C683   1.443       .  S
C222        C223   1.401       .  A
C222        C227   1.395       .  A
C223        C224   1.413       .  A
C223        H228   1.083       .  S
C224        C225   1.426       .  A
C224        C536   1.512       .  S
C225        C226   1.422       .  A
C225        H229   1.083       .  S
C226        C523   1.465       .  S
C226        C227   1.397       .  A
C227        H230   1.086       .  S
C231        C522   1.460       .  S
C231        C232   1.400       .  A
C231        C236   1.416       .  A
C232        C233   1.399       .  A
C232        H237   1.085       .  S
C233        C639   1.461       .  S
C233        C234   1.413       .  A
C234        C235   1.419       .  A
C234        H238   1.084       .  S
C235        C236   1.422       .  A
C235        C532   1.514       .  S
C236        H239   1.083       .  S
C240        C570   1.452       .  S
C240        C241   1.400       .  A
C240        C245   1.409       .  A
C241        C242   1.400       .  A
C241        H246   1.086       .  S
C242        C711   1.453       .  S
C242        C243   1.409       .  A
C243        C244   1.415       .  A
C243        H247   1.086       .  S
C244        C245   1.416       .  A
C244        C528   1.504       .  S
C245        H248   1.082       .  S
O249        C257   1.249       .  A
O249       Co269   1.982       .  S
O250        C258   1.250       .  A
O250       Co270   1.987       .  S
O251        C259   1.252       .  A
O251       Co271   1.954   1_455  S
O252        C260   1.257       .  A
O252       Co272   1.958       .  S
O253        C259   1.280       .  A
O253       Co270   2.072       .  S
O254        C260   1.284   1_655  A
O254       Co269   2.069       .  S
O255        C258   1.259   1_556  A
O255       Co272   2.005       .  S
O256        C257   1.258   1_554  A
O256       Co271   2.003       .  S
C257        C610   1.450       .  S
C258        C518   1.454       .  S
C259        C510   1.449       .  S
C260        C539   1.451       .  S
O261        C274   1.256   1_655  A
O261       Co269   1.956       .  S
O262        C275   1.254   1_455  A
O262       Co270   1.951       .  S
O263        C276   1.292       .  A
O263       Co271   2.072       .  S
O264        C277   1.296   1_556  A
O264       Co272   2.085       .  S
O265        C277   1.278       .  A
O265       Co270   1.910       .  S
O266        C276   1.280   1_556  A
O266       Co269   1.921       .  S
O267        C274   1.275       .  A
O267       Co272   2.055       .  S
O268        C275   1.276       .  A
O268       Co271   2.059       .  S
Co269       O273   2.007   1_656  S
Co270       O273   2.011       .  S
Co271       O273   2.105   1_655  S
Co272       O273   2.104   1_556  S
C274        C503   1.460   1_455  S
C275        C514   1.455   1_655  S
C276        C519   1.453       .  S
C277        C591   1.450       .  S
C278        C495   1.460       .  S
C278        C279   1.402       .  A
C278        C283   1.413       .  A
C279        C280   1.401       .  A
C279        H284   1.085       .  S
C280        C703   1.470       .  S
C280        C281   1.418       .  A
C281        C282   1.424       .  A
C281        H285   1.084       .  S
C282        C283   1.419       .  A
C282        C499   1.518       .  S
C283        H286   1.082       .  S
C287        C500   1.510       .  S
C287        N288   1.368       .  A
C287        N292   1.367       .  A
N288        C289   1.371       .  A
C289        C487   1.528       .  S
C289        N290   1.377       .  A
N290        C291   1.379       .  A
C291        C492   1.522       .  S
C291        N292   1.366       .  A
C293        C511   1.464       .  S
C293        C294   1.416       .  A
C293        C298   1.405       .  A
C294        C295   1.419       .  A
C294        H299   1.083       .  S
C295        C296   1.430       .  A
C295        C491   1.527       .  S
C296        C297   1.423       .  A
C296        H300   1.083       .  S
C297        C666   1.481       .  S
C297        C298   1.403       .  A
C298        H301   1.085       .  S
C302        C631   1.461       .  S
C302        C303   1.396       .  A
C302        C307   1.412       .  A
C303        C304   1.399       .  A
C303        H308   1.086       .  S
C304        C578   1.477       .  S
C304        C305   1.432       .  A
C305        C306   1.434       .  A
C305        H309   1.084       .  S
C306        C307   1.420       .  A
C306        C488   1.530       .  S
C307        H310   1.082       .  S
C311        C483   1.518       .  S
C311        N312   1.378       .  A
C311        N316   1.365       .  A
N312        C313   1.380       .  A
C313        C479   1.514       .  S
C313        N314   1.367       .  A
N314        C315   1.362       .  A
C315        C476   1.501       .  S
C315        N316   1.361       .  A
C317        C678   1.475       .  S
C317        C318   1.405       .  A
C317        C322   1.426       .  A
C318        C319   1.402       .  A
C318        H323   1.085       .  S
C319        C506   1.467       .  S
C319        C320   1.412       .  A
C320        C321   1.419       .  A
C320        H324   1.086       .  S
C321        C322   1.430       .  A
C321        C484   1.527       .  S
C322        H325   1.081       .  S
C326        C582   1.480       .  S
C326        C327   1.430       .  A
C326        C331   1.407       .  A
C327        C328   1.430       .  A
C327        H332   1.083       .  S
C328        C329   1.411       .  A
C328        C480   1.519       .  S
C329        C330   1.404       .  A
C329        H333   1.084       .  S
C330        C638   1.459       .  S
C330        C331   1.403       .  A
C331        H334   1.085       .  S
C335        C719   1.452       .  S
C335        C336   1.412       .  A
C335        C340   1.394       .  A
C336        C337   1.419       .  A
C336        H341   1.085       .  S
C337        C338   1.418       .  A
C337        C475   1.507       .  S
C338        C339   1.411       .  A
C338        H342   1.082       .  S
C339        C474   1.450       .  S
C339        C340   1.395       .  A
C340        H343   1.086       .  S
C344        C467   1.502       .  S
C344        N345   1.365       .  A
C344        N349   1.363       .  A
N345        C346   1.367       .  A
C346        C463   1.525       .  S
C346        N347   1.379       .  A
N347        C348   1.382       .  A
C348        C459   1.520       .  S
C348        N349   1.365       .  A
C350        C726   1.464       .  S
C350        C351   1.419       .  A
C350        C355   1.404       .  A
C351        C352   1.421       .  A
C351        H356   1.082       .  S
C352        C353   1.411       .  A
C352        C468   1.503       .  S
C353        C354   1.405       .  A
C353        H357   1.085       .  S
C354        C455   1.455       .  S
C354        C355   1.401       .  A
C355        H358   1.085       .  S
C359        C507   1.461       .  S
C359        C360   1.395       .  A
C359        C364   1.413       .  A
C360        C361   1.399       .  A
C360        H365   1.086       .  S
C361        C670   1.474       .  S
C361        C362   1.429       .  A
C362        C363   1.433       .  A
C362        H366   1.083       .  S
C363        C364   1.422       .  A
C363        C464   1.533       .  S
C364        H367   1.083       .  S
C368        C559   1.474       .  S
C368        C369   1.395       .  A
C368        C373   1.424       .  A
C369        C370   1.397       .  A
C369        H374   1.086       .  S
C370        C647   1.453       .  S
C370        C371   1.413       .  A
C371        C372   1.418       .  A
C371        H375   1.083       .  S
C372        C373   1.433       .  A
C372        C460   1.524       .  S
C373        H376   1.083       .  S
C377        C447   1.508       .  S
C377        N378   1.369       .  A
C377        N382   1.362       .  A
N378        C379   1.373       .  A
C379        C451   1.505       .  S
C379        N380   1.371       .  A
N380        C381   1.366       .  A
C381        C443   1.501       .  S
C381        N382   1.363       .  A
C383        C718   1.448       .  S
C383        C384   1.412       .  A
C383        C388   1.397       .  A
C384        C385   1.417       .  A
C384        H389   1.083       .  S
C385        C386   1.419       .  A
C385        C452   1.509       .  S
C386        C387   1.411       .  A
C386        H390   1.083       .  S
C387        C574   1.457       .  S
C387        C388   1.395       .  A
C388        H391   1.086       .  S
C392        C442   1.460       .  S
C392        C393   1.414       .  A
C392        C397   1.396       .  A
C393        C394   1.421       .  A
C393        H398   1.085       .  S
C394        C395   1.422       .  A
C394        C448   1.516       .  S
C395        C396   1.415       .  A
C395        H399   1.082       .  S
C396        C691   1.457       .  S
C396        C397   1.398       .  A
C397        H400   1.086       .  S
C401        C655   1.468       .  S
C401        C402   1.405       .  A
C401        C406   1.416       .  A
C402        C403   1.405       .  A
C402        H407   1.084       .  S
C403        C515   1.461       .  S
C403        C404   1.409       .  A
C404        C405   1.417       .  A
C404        H408   1.083       .  S
C405        C406   1.420       .  A
C405        C444   1.512       .  S
C406        H409   1.084       .  S
O410        C418   1.256   1_655  A
O410       Co430   1.952       .  S
O411        C419   1.253       .  A
O411       Co431   1.950       .  S
O412        C420   1.291   1_565  A
O412       Co432   2.065       .  S
O413        C421   1.294   1_545  A
O413       Co433   2.075       .  S
O414        C420   1.280       .  A
O414       Co431   1.921       .  S
O415        C421   1.278       .  A
O415       Co430   1.909       .  S
O416        C419   1.278   1_655  A
O416       Co433   2.068       .  S
O417        C418   1.279       .  A
O417       Co432   2.070       .  S
C418        C611   1.463   1_455  S
C419        C583   1.459       .  S
C420        C546   1.448   1_545  S
C421        C471   1.444       .  S
O422        C435   1.249       .  A
O422       Co430   1.982       .  S
O423        C436   1.249       .  A
O423       Co431   1.980       .  S
O424        C437   1.252   1_455  A
O424       Co432   1.953       .  S
O425        C438   1.249   1_655  A
O425       Co433   1.945       .  S
O426        C438   1.285       .  A
O426       Co431   2.085       .  S
O427        C437   1.280       .  A
O427       Co430   2.071       .  S
O428        C435   1.256   1_545  A
O428       Co433   1.996       .  S
O429        C436   1.260   1_565  A
O429       Co432   2.007       .  S
Co430       O434   2.008   1_655  S
Co431       O434   2.011   1_545  S
Co432       O434   2.092       .  S
Co433       O434   2.094   1_645  S
C435        C458   1.447       .  S
C436        C498   1.451       .  S
C437        C439   1.449   1_655  S
C438        C526   1.452       .  S
C439        C440   1.217       .  T
C440        C441   1.432       .  S
C441        C442   1.218       .  T
C443        C444   1.357       .  D
C443        H445   1.086       .  S
C444        H446   1.088       .  S
C447        C448   1.357       .  D
C447        H449   1.088       .  S
C448        H450   1.089       .  S
C451        C452   1.358       .  D
C451        H453   1.085       .  S
C452        H454   1.085       .  S
C455        C456   1.215       .  T
C456        C457   1.426       .  S
C457        C458   1.214       .  T
C459        C460   1.372       .  D
C459        H461   1.084       .  S
C460        H462   1.085       .  S
C463        C464   1.362       .  D
C463        H465   1.083       .  S
C464        H466   1.084       .  S
C467        C468   1.352       .  D
C467        H469   1.091       .  S
C468        H470   1.091       .  S
C471        C472   1.212   1_565  T
C472        C473   1.422       .  S
C473        C474   1.212       .  T
C475        C476   1.355       .  D
C475        H477   1.090       .  S
C476        H478   1.089       .  S
C479        C480   1.354       .  D
C479        H481   1.085       .  S
C480        H482   1.085       .  S
C483        C484   1.358       .  D
C483        H485   1.091       .  S
C484        H486   1.092       .  S
C487        C488   1.364       .  D
C487        H489   1.081       .  S
C488        H490   1.082       .  S
C491        C492   1.371       .  D
C491        H493   1.086       .  S
C492        H494   1.085       .  S
C495        C496   1.218       .  T
C496        C497   1.431       .  S
C497        C498   1.217       .  T
C499        C500   1.361       .  D
C499        H501   1.088       .  S
C500        H502   1.088       .  S
C503        C504   1.222       .  T
C504        C505   1.438       .  S
C505        C506   1.222       .  T
C507        C508   1.219       .  T
C508        C509   1.432       .  S
C509        C510   1.217   1_655  T
C511        C512   1.220       .  T
C512        C513   1.435       .  S
C513        C514   1.219       .  T
C515        C516   1.218       .  T
C516        C517   1.432       .  S
C517        C518   1.218       .  T
C519        C520   1.218       .  T
C520        C521   1.433       .  S
C521        C522   1.219       .  T
C523        C524   1.222       .  T
C524        C525   1.438       .  S
C525        C526   1.221   1_655  T
C527        C528   1.353       .  D
C527        H529   1.091       .  S
C528        H530   1.091       .  S
C531        C532   1.357       .  D
C531        H533   1.087       .  S
C532        H534   1.088       .  S
C535        C536   1.359       .  D
C535        H537   1.085       .  S
C536        H538   1.086       .  S
C539        C540   1.218       .  T
C540        C541   1.432       .  S
C541        C542   1.218       .  T
C543        C544   1.217       .  T
C544        C545   1.430       .  S
C545        C546   1.216       .  T
C547        C548   1.359       .  D
C547        H549   1.085       .  S
C548        H550   1.086       .  S
C551        C552   1.355       .  D
C551        H553   1.090       .  S
C552        H554   1.091       .  S
C555        C556   1.363       .  D
C555        H557   1.084       .  S
C556        H558   1.083       .  S
C559        C560   1.227       .  T
C560        C561   1.447       .  S
C561        C562   1.227   1_554  T
C563        C564   1.226       .  T
C564        C565   1.445       .  S
C565        C566   1.226       .  T
C567        C568   1.213       .  T
C568        C569   1.424       .  S
C569        C570   1.213       .  T
C571        C572   1.216       .  T
C572        C573   1.429       .  S
C573        C574   1.216       .  T
C575        C576   1.230   1_556  T
C576        C577   1.451       .  S
C577        C578   1.230       .  T
C579        C580   1.231       .  T
C580        C581   1.453       .  S
C581        C582   1.231       .  T
C583        C584   1.221       .  T
C584        C585   1.438       .  S
C585        C586   1.222       .  T
C587        C588   1.221       .  T
C588        C589   1.436       .  S
C589        C590   1.220       .  T
C591        C592   1.215   1_554  T
C592        C593   1.428       .  S
C593        C594   1.215       .  T
C595        C596   1.358       .  D
C595        H597   1.084       .  S
C596        H598   1.085       .  S
C599        C600   1.357       .  D
C599        H601   1.089       .  S
C600        H602   1.088       .  S
C603        C604   1.355       .  D
C603        H605   1.087       .  S
C604        H606   1.088       .  S
C607        C608   1.218       .  T
C608        C609   1.431       .  S
C609        C610   1.217       .  T
C611        C612   1.224       .  T
C612        C613   1.442       .  S
C613        C614   1.225       .  T
C615        C616   1.363       .  D
C615        H617   1.089       .  S
C616        H618   1.089       .  S
C619        C620   1.360       .  D
C619        H621   1.087       .  S
C620        H622   1.087       .  S
C623        C624   1.221   1_545  T
C624        C625   1.438       .  S
C625        C626   1.222       .  T
C627        C628   1.358       .  D
C627        H629   1.089       .  S
C628        H630   1.088       .  S
C631        C632   1.219       .  T
C632        C633   1.433       .  S
C633        C634   1.218       .  T
C635        C636   1.217       .  T
C636        C637   1.431       .  S
C637        C638   1.217       .  T
C639        C640   1.219       .  T
C640        C641   1.433       .  S
C641        C642   1.218       .  T
C643        C644   1.227       .  T
C644        C645   1.447       .  S
C645        C646   1.227       .  T
C647        C648   1.214       .  T
C648        C649   1.425       .  S
C649        C650   1.213       .  T
C651        C652   1.217       .  T
C652        C653   1.430       .  S
C653        C654   1.216       .  T
C655        C656   1.223       .  T
C656        C657   1.440       .  S
C657        C658   1.222       .  T
C659        C660   1.216       .  T
C660        C661   1.428       .  S
C661        C662   1.215       .  T
C663        C664   1.230       .  T
C664        C665   1.452       .  S
C665        C666   1.231       .  T
C667        C668   1.228       .  T
C668        C669   1.448       .  S
C669        C670   1.228       .  T
C671        C672   1.220       .  T
C672        C673   1.434       .  S
C673        C674   1.219       .  T
C675        C676   1.227       .  T
C676        C677   1.448       .  S
C677        C678   1.228       .  T
C679        C680   1.220       .  T
C680        C681   1.435       .  S
C681        C682   1.220       .  T
C683        C684   1.208       .  T
C684        C685   1.415       .  S
C685        C686   1.207       .  T
C687        C688   1.221       .  T
C688        C689   1.438       .  S
C689        C690   1.222       .  T
C691        C692   1.217       .  T
C692        C693   1.430       .  S
C693        C694   1.216       .  T
C695        C696   1.215       .  T
C696        C697   1.427       .  S
C697        C698   1.214       .  T
C699        C700   1.214       .  T
C700        C701   1.426       .  S
C701        C702   1.214       .  T
C703        C704   1.224       .  T
C704        C705   1.442       .  S
C705        C706   1.224       .  T
C707        C708   1.216       .  T
C708        C709   1.429       .  S
C709        C710   1.216       .  T
C711        C712   1.213       .  T
C712        C713   1.424       .  S
C713        C714   1.212       .  T
C715        C716   1.209       .  T
C716        C717   1.419       .  S
C717        C718   1.211       .  T
C719        C720   1.213       .  T
C720        C721   1.423       .  S
C721        C722   1.211       .  T
C723        C724   1.220       .  T
C724        C725   1.436       .  S
C725        C726   1.221       .  T
