geometry optimzed in LAMMPS
_audit_creation_date              2020-11-30 
_audit_creation_method            'lammps2cif' 
_symmetry_space_group_name_H-M    'P1' 
_symmetry_Int_Tables_number       1 
_symmetry_cell_setting            triclinic 
loop_ 
_symmetry_equiv_pos_as_xyz 
  x,y,z 
_cell_length_a                    45.735360768765176 
_cell_length_b                    46.29882215990879 
_cell_length_c                    46.1922705503931 
_cell_angle_alpha                 90.33181120491491 
_cell_angle_beta                  90.29308508590701 
_cell_angle_gamma                 90.05228443965704 
loop_ 
_atom_site_label 
_atom_site_type_symbol 
_atom_site_fract_x 
_atom_site_fract_y 
_atom_site_fract_z 
_atom_site_charge 
C1          C  0.00364365  0.22763783  0.05115564     0.03690
C2          C  0.02752411  0.24738088  0.04948058     0.03690
C3          C  0.04956462  0.24318610  0.02795633     0.03690
C4          C  0.04846817  0.21889659  0.00860134     0.03690
C5          C  0.02484776  0.19856344  0.01123103     0.03690
C6          C  0.00256588  0.20297676  0.03257470     0.03690
C7          C  0.04719540  0.03083630  0.24011016     0.03690
C8          C  0.02405807  0.05161509  0.24159978     0.03690
C9          C  0.00398450  0.05501072  0.21794498     0.03690
C10         C  0.00412744  0.03470145  0.19451811     0.03690
C11         C  0.02593210  0.01235781  0.19428614     0.03690
C12         C  0.04857981  0.01116658  0.21610953     0.03690
O13         O  0.52584810  0.45935542  0.51749163    -0.86940
C14         C  0.52065191  0.52329254  0.57840232     0.89090
Mg15       Mg  0.55541746  0.46039925  0.48243759     1.58150
O16         O  0.46567482  0.52082597  0.52555782    -0.86670
O17         O  0.47898402  0.45424770  0.52495715    -0.74000
C18         C  0.54499760  0.59074774  0.42872496     0.94140
O19         O  0.57934430  0.49812491  0.54233971    -0.73820
O20         O  0.56288823  0.57001468  0.43067587    -0.81330
Mg21       Mg  0.54455675  0.46697118  0.55938532     1.57960
C22         C  0.43678008  0.59452335  0.48608856     0.94060
O23         O  0.51372240  0.43508806  0.57977024    -0.79590
H24         H  0.43176638  0.50094469  0.50639032    -0.04930
C25         C  0.53090338  0.57816196  0.51237209     0.89000
O26         O  0.51960262  0.47787059  0.45241999    -0.74100
O27         O  0.51363664  0.50137158  0.56457151    -0.86860
O28         O  0.44003964  0.58205218  0.51030443    -0.79670
C29         C  0.43646379  0.54121044  0.59306021     0.94170
C30         C  0.48960991  0.43354300  0.59320601     0.94030
Mg31       Mg  0.49027545  0.55895063  0.46374182     1.57950
O32         O  0.52181675  0.59199364  0.44390324    -0.79590
O33         O  0.45547698  0.52661280  0.47970309    -0.73830
O34         O  0.45521143  0.52099294  0.59460704    -0.79670
O35         O  0.57691909  0.42986943  0.55337489    -0.81390
O36         O  0.57760175  0.50531930  0.42916287    -0.79700
C37         C  0.45012131  0.51554854  0.50422375     0.88460
O38         O  0.52020601  0.52464732  0.45941383    -0.86850
O39         O  0.50706482  0.56666091  0.50687045    -0.86950
O40         O  0.55438687  0.56976278  0.50028903    -0.74010
Mg41       Mg  0.46862569  0.48907825  0.55892906     1.57970
O42         O  0.43768256  0.55988342  0.57313182    -0.81380
H43         H  0.50234472  0.42818957  0.49819145    -0.05110
O44         O  0.56828548  0.50292454  0.49657870    -0.86650
H45         H  0.60345490  0.52181698  0.51433882    -0.04930
H46         H  0.49415888  0.50584604  0.42991218    -0.05110
C47         C  0.58464983  0.50799388  0.51734882     0.88440
C48         C  0.50264625  0.44630659  0.51309858     0.89030
C49         C  0.51089420  0.50314086  0.44632139     0.89070
H50         H  0.53188307  0.59543848  0.52820598    -0.05090
O51         O  0.50930430  0.54778755  0.57291412    -0.74120
Mg52       Mg  0.56500326  0.53578244  0.46501534     1.58000
H53         H  0.53683011  0.52163314  0.59545961    -0.05110
C54         C  0.59419189  0.42548190  0.53229697     0.94060
O55         O  0.58559829  0.46045147  0.44416131    -0.81340
C56         C  0.58701322  0.47989514  0.42499368     0.94120
O57         O  0.47115141  0.45404597  0.59315930    -0.81330
Mg58       Mg  0.47448721  0.56365030  0.53997795     1.58180
O59         O  0.59189803  0.43908088  0.50854454    -0.79660
O60         O  0.45653207  0.59427583  0.46692610    -0.81360
C61         C  0.66031828  0.38315245  0.51114709     0.04530
C62         C  0.64344065  0.40633047  0.52156364    -0.11620
C63         C  0.61565418  0.40186418  0.53317961     0.02030
C64         C  0.60538444  0.37367319  0.53655714    -0.10140
C65         C  0.62136965  0.35002294  0.52592889     0.04520
C66         C  0.64916841  0.35473903  0.51342938    -0.09570
H67         H  0.65079263  0.42831114  0.51799990     0.10120
H68         H  0.58319430  0.37030781  0.54405811     0.07650
H69         H  0.66078966  0.33689939  0.50351895     0.07490
C70         C  0.35792310  0.61534841  0.49412215     0.04530
C71         C  0.38439455  0.60018790  0.49536261    -0.11620
C72         C  0.40925997  0.60991116  0.48126794     0.02030
C73         C  0.40854557  0.63627405  0.46708453    -0.10140
C74         C  0.38520600  0.65533702  0.47234082     0.04520
C75         C  0.35890080  0.64436502  0.48432695    -0.09570
H76         H  0.38567936  0.58014298  0.50732128     0.10120
H77         H  0.42872483  0.64457948  0.45803979     0.07650
H78         H  0.34031784  0.65853402  0.48698642     0.07490
C79         C  0.39719434  0.51257894  0.65560801     0.04530
C80         C  0.41757344  0.53011372  0.64126304    -0.11620
C81         C  0.41188389  0.54048452  0.61360529     0.02030
C82         C  0.38310294  0.54005208  0.60319192    -0.10140
C83         C  0.36087258  0.52626867  0.61899186     0.04520
C84         C  0.36822402  0.51147201  0.64476019    -0.09570
H85         H  0.43963733  0.53232814  0.64966320     0.10120
H86         H  0.37850585  0.54770156  0.58148789     0.07650
H87         H  0.35205756  0.49790545  0.65501587     0.07490
C88         C  0.65211176  0.47636894  0.38041531     0.04530
C89         C  0.63144121  0.46550602  0.39992684    -0.11620
C90         C  0.60279659  0.47483319  0.39814961     0.02030
C91         C  0.59302589  0.48791364  0.37293628    -0.10140
C92         C  0.61181250  0.49199403  0.34936667     0.04520
C93         C  0.64227613  0.48814527  0.35383979    -0.09570
H94         H  0.63878843  0.45564943  0.41994303     0.10120
H95         H  0.57057141  0.49541421  0.37185429     0.07650
H96         H  0.65783785  0.49481873  0.33761949     0.07490
C97         C  0.52934273  0.61942299  0.35730136     0.04530
C98         C  0.54509053  0.60291215  0.37745963    -0.11620
C99         C  0.54833220  0.61233894  0.40587691     0.02030
C100        C  0.54143724  0.64067681  0.41265620    -0.10140
C101        C  0.52144462  0.65624633  0.39549960     0.04520
C102        C  0.51613449  0.64569488  0.36677994    -0.09570
H103        H  0.55183434  0.58111358  0.37192764     0.10120
H104        H  0.54857425  0.64855782  0.43358674     0.07650
H105        H  0.50104962  0.65654325  0.35244431     0.07490
C106        C  0.47612192  0.38307717  0.65517260     0.04530
C107        C  0.47364081  0.40761685  0.63753136    -0.11620
C108        C  0.48402216  0.40691467  0.60927214     0.02030
C109        C  0.49416050  0.38099648  0.59769868    -0.10140
C110        C  0.49294464  0.35510363  0.61323121     0.04520
C111        C  0.48478129  0.35643081  0.64277112    -0.09570
H112        H  0.46800447  0.42825244  0.64719176     0.10120
H113        H  0.50375269  0.38124468  0.57629153     0.07650
H114        H  0.48611315  0.33747909  0.65629344     0.07490
C115        C  0.00456218  0.27053983  0.45355013     0.03690
C116        C  0.00451554  0.29199883  0.47620633     0.03690
C117        C  0.98278433  0.29099660  0.49837195     0.03690
C118        C  0.96197280  0.26792643  0.49836655     0.03690
C119        C  0.96259838  0.24609665  0.47630393     0.03690
C120        C  0.98382699  0.24732052  0.45379943     0.03690
O121        O  0.04778583  0.97434330  0.48960676    -0.86940
C122        C  0.98033304  0.98979850  0.43347256     0.89090
Mg123      Mg  0.04552812  0.94311617  0.52259281     1.58150
O124        O  0.99108758  0.04130438  0.48859359    -0.86670
O125        O  0.05654983  0.02053253  0.48532010    -0.74000
C126        C  0.91615092  0.96174316  0.57999850     0.94140
O127        O  0.00203039  0.92698003  0.46345300    -0.73820
O128        O  0.93543569  0.94245678  0.57674829    -0.81330
Mg129      Mg  0.03544955  0.95963811  0.44713799     1.57960
C130        C  0.91963211  0.07385927  0.53240706     0.94060
O131        O  0.06933772  0.98752101  0.42696533    -0.79590
H132        H  0.01524722  0.07149564  0.50872017    -0.04930
C133        C  0.92862832  0.98168590  0.49981387     0.89000
O134        O  0.03256738  0.97785981  0.55583472    -0.74100
O135        O  0.00362122  0.99363226  0.44666037    -0.86860
O136        O  0.93267708  0.07248458  0.50814032    -0.79670
C137        C  0.96907418  0.07277788  0.42135196     0.94170
C138        C  0.07162744  0.01160089  0.41436596     0.94030
Mg139      Mg  0.95325903  0.01638851  0.55021909     1.57950
O140        O  0.91805354  0.98655747  0.56834102    -0.79590
O141        O  0.98842047  0.04881342  0.53524444    -0.73830
O142        O  0.99011832  0.05495633  0.42039038    -0.79670
O143        O  0.06989035  0.92438746  0.44792307    -0.81390
O144        O  0.00021396  0.92172896  0.57653511    -0.79700
C145        C  0.99890578  0.05468670  0.51053395     0.88460
O146        O  0.98520378  0.98302690  0.55104013    -0.86850
O147        O  0.94220386  0.00382093  0.50684309    -0.86950
O148        O  0.93573041  0.95688361  0.50931338    -0.74010
Mg149      Mg  0.02112049  0.03623867  0.45385893     1.57970
O150        O  0.95147744  0.07349645  0.44252407    -0.81380
H151        H  0.08206551  0.99343835  0.50884936    -0.05110
O152        O  0.00114573  0.93578182  0.50981829    -0.86650
H153        H  0.97820136  0.90349610  0.49182673    -0.04930
H154        H  0.00827287  0.00449528  0.58114509    -0.05110
C155        C  0.99341690  0.92109880  0.48875260     0.88440
C156        C  0.06311606  0.99573810  0.49492545     0.89030
C157        C  0.00841712  0.98890592  0.56360095     0.89070
H158        H  0.91065299  0.98338255  0.48459922    -0.05090
O159        O  0.95717714  0.00324081  0.44059319    -0.74120
Mg160      Mg  0.96958478  0.94017351  0.54246199     1.58000
H161        H  0.97959859  0.97461175  0.41561894    -0.05110
C162        C  0.07441370  0.90590816  0.46764587     0.94060
O163        O  0.04397565  0.91052934  0.55882801    -0.81340
C164        C  0.02510448  0.90975296  0.57887253     0.94120
O165        O  0.05325422  0.03180003  0.41752951    -0.81330
Mg166      Mg  0.94655859  0.03746975  0.47574241     1.58180
O167        O  0.06243032  0.90766360  0.49243927    -0.79660
O168        O  0.91994636  0.05302797  0.55020981    -0.81360
C169        C  0.14774466  0.00601083  0.38598877     0.04530
C170        C  0.12350704  0.00606664  0.40437284    -0.11620
C171        C  0.09619757  0.01493162  0.39499541     0.02030
C172        C  0.09158709  0.02159283  0.36617720    -0.10140
C173        C  0.11383275  0.01742534  0.34585993     0.04520
C174        C  0.14269170  0.01053299  0.35578471    -0.09570
H175        H  0.12593627  0.99950725  0.42678413     0.10120
H176        H  0.06963077  0.02699130  0.35898346     0.07650
H177        H  0.16043056  0.00846186  0.34049770     0.07490
C178        C  0.97236673  0.14412805  0.38345709     0.04530
C179        C  0.98098540  0.13511137  0.35538550    -0.11620
C180        C  0.98215897  0.10524213  0.34832085     0.02030
C181        C  0.97574468  0.08516222  0.37002920    -0.10140
C182        C  0.96710908  0.09381751  0.39767743     0.04520
C183        C  0.96414912  0.12321354  0.40387001    -0.09570
H184        H  0.98778656  0.15107984  0.33976816     0.10120
H185        H  0.97931754  0.06234470  0.36598811     0.07650
H186        H  0.95924474  0.12990583  0.42586955     0.07490
C187        C  0.11214856  0.84346378  0.49454635     0.04530
C188        C  0.09177113  0.85684655  0.47598005    -0.11620
C189        C  0.09731346  0.88395284  0.46447338     0.02030
C190        C  0.12596518  0.89398919  0.46391733    -0.10140
C191        C  0.14792998  0.88030067  0.48017335     0.04520
C192        C  0.14087248  0.85510373  0.49616080    -0.09570
H193        H  0.06960826  0.84868323  0.47429467     0.10120
H194        H  0.13023647  0.91509470  0.45472094     0.07650
H195        H  0.15678571  0.84602398  0.51095224     0.07490
C196        C  0.89512626  0.14647150  0.51422080     0.04530
C197        C  0.86459511  0.14106211  0.51252897    -0.11620
C198        C  0.85255561  0.11631836  0.52578907     0.02030
C199        C  0.87116104  0.09552692  0.53782801    -0.10140
C200        C  0.90124396  0.09942988  0.53735266     0.04520
C201        C  0.91237662  0.12631116  0.52959819    -0.09570
H202        H  0.85032425  0.15477890  0.49998193     0.10120
H203        H  0.86238253  0.07459778  0.54374718     0.07650
H204        H  0.93544346  0.12974885  0.53328014     0.07490
C205        C  0.88739667  0.97506310  0.65002112     0.04530
C206        C  0.90154467  0.95743004  0.62972230    -0.11620
C207        C  0.89283160  0.95767950  0.60100000     0.02030
C208        C  0.86556493  0.96861219  0.59393485    -0.10140
C209        C  0.85123177  0.98776563  0.61286427     0.04520
C210        C  0.86213815  0.99076942  0.64155170    -0.09570
H211        H  0.92247343  0.94777079  0.63517043     0.10120
H212        H  0.85820897  0.96604443  0.57172990     0.07650
H213        H  0.85243339  0.00621421  0.65632598     0.07490
C214        C  0.02001016  0.88772564  0.65641392     0.04530
C215        C  0.02314602  0.90512318  0.63189923    -0.11620
C216        C  0.03071246  0.89322515  0.60518624     0.02030
C217        C  0.03668472  0.86384415  0.60298413    -0.10140
C218        C  0.03130194  0.84539555  0.62638579     0.04520
C219        C  0.02298654  0.85738414  0.65339911    -0.09570
H220        H  0.01821256  0.92801271  0.63329578     0.10120
H221        H  0.04117613  0.85463307  0.58181024     0.07650
H222        H  0.01801416  0.84335315  0.67139550     0.07490
C223        C  0.29342358  0.99928973  0.48167532     0.03690
C224        C  0.27168098  0.00013927  0.45952547     0.03690
C225        C  0.24892576  0.97905868  0.45858542     0.03690
C226        C  0.24835990  0.95682495  0.47973400     0.03690
C227        C  0.27012642  0.95602779  0.50208184     0.03690
C228        C  0.29268004  0.97740092  0.50314206     0.03690
O229        O  0.00893692  0.44187927  0.00797816    -0.86940
C230        C  0.99752057  0.50775386  0.06590866     0.89090
Mg231      Mg  0.04175722  0.44316448  0.97501246     1.58150
O232        O  0.94354783  0.50118882  0.01212622    -0.86670
O233        O  0.96183193  0.43549145  0.01360394    -0.74000
C234        C  0.02569106  0.57267072  0.91882735     0.94140
O235        O  0.05792961  0.48459367  0.03503650    -0.73820
O236        O  0.04530356  0.55339243  0.92100795    -0.81330
Mg237      Mg  0.02372228  0.45215345  0.05114012     1.57960
C238        C  0.91636947  0.57368933  0.96799012     0.94060
O239        O  0.99338260  0.41878053  0.07088342    -0.79590
H240        H  0.91247177  0.47825481  0.99177225    -0.04930
C241        C  0.00760023  0.55979263  0.99838059     0.89000
O242        O  0.00792894  0.45714566  0.94103616    -0.74100
O243        O  0.99123633  0.48511109  0.05298988    -0.86860
O244        O  0.91737272  0.56210798  0.99296502    -0.79670
C245        C  0.91694306  0.52692487  0.08081139     0.94170
C246        C  0.96935542  0.41771403  0.08458125     0.94030
Mg247      Mg  0.97099328  0.53588477  0.94895714     1.57950
O248        O  0.00073982  0.57007825  0.93040000    -0.79590
O249        O  0.93740517  0.50266046  0.96507433    -0.73830
O250        O  0.92982344  0.50257755  0.07967669    -0.79670
O251        O  0.05866025  0.41750027  0.05028129    -0.81390
O252        O  0.06619007  0.48788788  0.92144998    -0.79700
C253        C  0.93021923  0.49359354  0.98997911     0.88460
O254        O  0.00391087  0.50379403  0.94722077    -0.86850
O255        O  0.98507664  0.54629344  0.99209916    -0.86950
O256        O  0.03240338  0.55246016  0.98851881    -0.74010
Mg257      Mg  0.94727653  0.47054312  0.04621355     1.57970
O258        O  0.91790630  0.54482975  0.06007721    -0.81380
H259        H  0.98710426  0.40993558  0.98804618    -0.05110
O260        O  0.05094479  0.48677768  0.98821926    -0.86650
H261        H  0.08318174  0.50845288  0.00816282    -0.04930
H262        H  0.98238404  0.48264533  0.91580141    -0.05110
C263        C  0.06497451  0.49366710  0.01013702     0.88440
C264        C  0.98624936  0.42821804  0.00270337     0.89030
C265        C  0.99763715  0.48149757  0.93373735     0.89070
H266        H  0.00626488  0.57781344  0.01333627    -0.05090
O267        O  0.98653805  0.53182793  0.05851158    -0.74120
Mg268      Mg  0.04762533  0.51853955  0.95537747     1.58000
H269        H  0.01313368  0.50713736  0.08357736    -0.05110
C270        C  0.07794749  0.41380892  0.03097537     0.94060
O271        O  0.07636231  0.44430236  0.93911526    -0.81340
C272        C  0.07858650  0.46335047  0.91945829     0.94120
O273        O  0.95011461  0.43733848  0.08242005    -0.81330
Mg274      Mg  0.95219625  0.54512286  0.02440890     1.58180
O275        O  0.07602094  0.42503564  0.00592090    -0.79660
O276        O  0.93606697  0.56976506  0.94923916    -0.81360
C277        C  0.14913146  0.38656421  0.01189501     0.04530
C278        C  0.14285397  0.35669379  0.00973030    -0.11620
C279        C  0.11736236  0.34562312  0.02275440     0.02030
C280        C  0.09689763  0.36461314  0.03486549    -0.10140
C281        C  0.10245689  0.39410841  0.03567202     0.04520
C282        C  0.13007720  0.40399883  0.02830213    -0.09570
H283        H  0.15661180  0.34237811  0.99721724     0.10120
H284        H  0.07537804  0.35670416  0.04062355     0.07650
H285        H  0.13464655  0.42667992  0.03189646     0.07490
C286        C  0.97850600  0.38095714  0.15462355     0.04530
C287        C  0.99242959  0.35555299  0.14429905    -0.11620
C288        C  0.99122793  0.34830004  0.11437391     0.02030
C289        C  0.97514685  0.36661187  0.09598756    -0.10140
C290        C  0.96623306  0.39389110  0.10518740     0.04520
C291        C  0.96604627  0.40020986  0.13470177    -0.09570
H292        H  0.00507345  0.34262004  0.15922487     0.10120
H293        H  0.97250428  0.36148077  0.07323963     0.07650
H294        H  0.95945186  0.42157230  0.14190677     0.07490
C295        C  0.89063081  0.50940748  0.15315753     0.04530
C296        C  0.90873580  0.52377014  0.13313863    -0.11620
C297        C  0.89816599  0.53197391  0.10604526     0.02030
C298        C  0.86815437  0.53342767  0.10159902    -0.10140
C299        C  0.84893833  0.52216438  0.12220291     0.04520
C300        C  0.86019232  0.50877821  0.14726275    -0.09570
H301        H  0.93193272  0.52620432  0.13691692     0.10120
H302        H  0.85981770  0.53952597  0.08046872     0.07650
H303        H  0.84536180  0.49684477  0.16085140     0.07490
C304        C  0.14803743  0.47229288  0.88158501     0.04530
C305        C  0.12830233  0.45876702  0.90034035    -0.11620
C306        C  0.09838612  0.45954696  0.89469923     0.02030
C307        C  0.08866860  0.46932757  0.86777815    -0.10140
C308        C  0.10705404  0.48563082  0.84961115     0.04520
C309        C  0.13723797  0.48687369  0.85687605    -0.09570
H310        H  0.13586500  0.45174011  0.92147294     0.10120
H311        H  0.06564118  0.46693235  0.86295521     0.07650
H312        H  0.15202142  0.50038655  0.84476189     0.07490
C313        C  0.01990254  0.64938617  0.89422987     0.04530
C314        C  0.02149172  0.64532863  0.86388661    -0.11620
C315        C  0.02847451  0.61780663  0.85246768     0.02030
C316        C  0.03409354  0.59482955  0.87134241    -0.10140
C317        C  0.03036584  0.59824321  0.90103321     0.04520
C318        C  0.02366889  0.62543882  0.91236904    -0.09570
H319        H  0.01656875  0.66301115  0.84941428     0.10120
H320        H  0.03771599  0.57333367  0.86256484     0.07650
H321        H  0.01992311  0.62766039  0.93545146     0.07490
C322        C  0.88938037  0.64552756  0.97785153     0.04530
C323        C  0.90316772  0.62383891  0.96153450    -0.11620
C324        C  0.89369507  0.59542468  0.96319567     0.02030
C325        C  0.86628578  0.58979067  0.97444345    -0.10140
C326        C  0.85255771  0.61004408  0.99263742     0.04520
C327        C  0.86398358  0.63853622  0.99396121    -0.09570
H328        H  0.92419434  0.62816645  0.95166171     0.10120
H329        H  0.85839449  0.56773032  0.97319870     0.07650
H330        H  0.85461609  0.65431626  0.00859800     0.07490
C331        C  0.99781830  0.45293371  0.28081610     0.03690
C332        C  0.97702832  0.45129919  0.25765446     0.03690
C333        C  0.95464279  0.47288310  0.25520267     0.03690
C334        C  0.95242222  0.49534267  0.27655722     0.03690
C335        C  0.97326278  0.49701988  0.29952408     0.03690
C336        C  0.99661704  0.47652541  0.30088828     0.03690
C337        C  0.26812481  0.45478480  0.00056604     0.03690
C338        C  0.24715955  0.45575977  0.97750065     0.03690
C339        C  0.24867002  0.47801670  0.95628276     0.03690
C340        C  0.27136378  0.49905377  0.95824027     0.03690
C341        C  0.29231705  0.49788846  0.98122278     0.03690
C342        C  0.29082920  0.47569685  0.00225421     0.03690
O343        O  0.55991738  0.01661706  0.98307800    -0.86940
C344        C  0.47368945  0.01414253  0.95901590     0.89090
Mg345      Mg  0.58378756  0.97949088  0.99513033     1.58150
O346        O  0.48495101  0.03740825  0.03063313    -0.86670
O347        O  0.54722833  0.05629405  0.00558184    -0.74000
C348        C  0.50392105  0.90958735  0.08738235     0.94140
O349        O  0.52339558  0.96524988  0.95182523    -0.73820
O350        O  0.52415553  0.90586705  0.06933952    -0.81330
Mg351      Mg  0.53268625  0.01321860  0.94504746     1.57960
C352        C  0.42794451  0.00208551  0.09185277     0.94060
O353        O  0.54071527  0.05969189  0.93144504    -0.79590
H354        H  0.49595660  0.06868831  0.05866332    -0.04930
C355        C  0.46552485  0.95116156  0.02322123     0.89000
O356        O  0.57564791  0.99049627  0.04357425    -0.74100
O357        O  0.49609235  0.02515160  0.96900830    -0.86860
O358        O  0.42735801  0.01619677  0.06840259    -0.79670
C359        C  0.42799587  0.07359851  0.99794861     0.94170
C360        C  0.52925025  0.08433311  0.93595077     0.94030
Mg361      Mg  0.49275577  0.97907990  0.07673794     1.57950
O362        O  0.48806111  0.93205788  0.08779487    -0.79590
O363        O  0.49819353  0.02802687  0.07466594    -0.73830
O364        O  0.45283726  0.07788593  0.98665078    -0.79670
O365        O  0.56979565  0.99945023  0.91874930    -0.81390
O366        O  0.58116422  0.92557791  0.04556265    -0.79700
C367        C  0.49282616  0.04583801  0.05473944     0.88460
O368        O  0.53295211  0.97190057  0.05431830    -0.86850
O369        O  0.47094142  0.97448031  0.03523047    -0.86950
O370        O  0.48550577  0.93272119  0.01853978    -0.74010
Mg371      Mg  0.49903672  0.06318539  0.99539278     1.57970
O372        O  0.42208590  0.05105829  0.01229119    -0.81380
H373        H  0.58887767  0.04157572  0.00393039    -0.05110
O374        O  0.54442383  0.95506471  0.99302167    -0.86650
H375        H  0.52541664  0.92478637  0.96828172    -0.04930
H376        H  0.55736905  0.99315403  0.08356282    -0.05110
C377        C  0.53133396  0.94728326  0.97088169     0.88280
C378        C  0.56640034  0.03844167  0.99719621     0.89030
C379        C  0.55524320  0.98537558  0.06152859     0.89070
H380        H  0.44342724  0.94662969  0.01598674    -0.05090
O381        O  0.45376342  0.00505610  0.97539441    -0.74120
Mg382      Mg  0.53433769  0.93165775  0.03088251     1.58000
H383        H  0.47184276  0.01064460  0.93589811    -0.05110
C384        C  0.58981470  0.98086799  0.92211265     0.94060
O385        O  0.60871743  0.93993246  0.00909040    -0.81340
C386        C  0.60413398  0.92352643  0.03063102     0.94120
O387        O  0.51294609  0.08942030  0.95756242    -0.81330
Mg388      Mg  0.44604670  0.01141989  0.02335479     1.58180
O389        O  0.59567995  0.96971157  0.94678183    -0.79660
O390        O  0.44937373  0.98596817  0.09869152    -0.81360
C391        C  0.39287186  0.14645053  0.98850596     0.04530
C392        C  0.41146341  0.12279415  0.98337151    -0.11620
C393        C  0.40592481  0.09641883  0.99650329     0.02030
C394        C  0.38033583  0.09311764  0.01192062    -0.10140
C395        C  0.35708399  0.11219813  0.00818753     0.04520
C396        C  0.36388735  0.14060927  0.99846864    -0.09570
H397        H  0.43213331  0.12602889  0.97245576     0.10120
H398        H  0.37717273  0.07379715  0.02469491     0.07650
H399        H  0.34763063  0.15753550  0.99918247     0.07490
C400        C  0.34972694  0.00895898  0.11830868     0.04530
C401        C  0.37423565  0.00884063  0.09998340    -0.11620
C402        C  0.40238038  0.00366272  0.11101775     0.02030
C403        C  0.40589457  0.99850645  0.14035633    -0.10140
C404        C  0.38225543  0.00042020  0.15939866     0.04520
C405        C  0.35386190  0.00534856  0.14843230    -0.09570
H406        H  0.37119123  0.01202680  0.07692350     0.10120
H407        H  0.42762108  0.99413977  0.14881794     0.07650
H408        H  0.33539990  0.00634719  0.16299584     0.07490
C409        C  0.51648259  0.15393295  0.89664821     0.04530
C410        C  0.52207547  0.13445632  0.91907629    -0.11620
C411        C  0.53154580  0.10648470  0.91340759     0.02030
C412        C  0.53669720  0.09804400  0.88486441    -0.10140
C413        C  0.52782734  0.11535541  0.86153398     0.04520
C414        C  0.51821166  0.14404055  0.86748981    -0.09570
H415        H  0.51813409  0.14100416  0.94131113     0.10120
H416        H  0.54489281  0.07647364  0.88068189     0.07650
H417        H  0.51180399  0.15817076  0.84998608     0.07490
C418        C  0.49258783  0.83871704  0.12429576     0.04530
C419        C  0.48154042  0.84833090  0.15162014    -0.11620
C420        C  0.48059306  0.87858662  0.15786464     0.02030
C421        C  0.49239213  0.89732302  0.13720505    -0.10140
C422        C  0.49908791  0.88807609  0.10955336     0.04520
C423        C  0.50042195  0.85896870  0.10339921    -0.09570
H424        H  0.47357255  0.83278470  0.16709888     0.10120
H425        H  0.49547864  0.92005265  0.14206367     0.07650
H426        H  0.50714663  0.85196036  0.08196551     0.07490
C427        C  0.65654601  0.97193791  0.87677011     0.04530
C428        C  0.63696798  0.96738387  0.89961441    -0.11620
C429        C  0.60754666  0.97414381  0.89644408     0.02030
C430        C  0.59666634  0.98106082  0.86895019    -0.10140
C431        C  0.61531710  0.98429716  0.84522384     0.04520
C432        C  0.64577006  0.98062611  0.84939056    -0.09570
H433        H  0.64549307  0.96272516  0.92105510     0.10120
H434        H  0.57364434  0.98612174  0.86637067     0.07650
H435        H  0.66081888  0.98537450  0.83202537     0.07490
C436        C  0.66209085  0.87770282  0.00699626     0.04530
C437        C  0.65142543  0.90023462  0.02436834    -0.11620
C438        C  0.62353892  0.89876326  0.03546817     0.02030
C439        C  0.61067404  0.87179606  0.03934510    -0.10140
C440        C  0.62162794  0.84718290  0.02508198     0.04520
C441        C  0.64739103  0.85042348  0.00777861    -0.09570
H442        H  0.66185194  0.92130133  0.02386497     0.10120
H443        H  0.58995579  0.87071305  0.05056788     0.07650
H444        H  0.65477327  0.83278781  0.99418580     0.07490
C445        C  0.44751360  0.97759269  0.26129733     0.03690
C446        C  0.46697194  0.95361778  0.25738992     0.03690
C447        C  0.49240499  0.95178176  0.27536560     0.03690
C448        C  0.49612396  0.97124337  0.29966791     0.03690
C449        C  0.47547096  0.99396152  0.30446880     0.03690
C450        C  0.45175164  0.99767888  0.28467088     0.03690
C451        C  0.45208574  0.27691004  0.99794367     0.03690
C452        C  0.45540581  0.25552999  0.97597513     0.03690
C453        C  0.47791600  0.25836423  0.95495005     0.03690
C454        C  0.49501344  0.28426422  0.95366437     0.03690
C455        C  0.49215925  0.30547954  0.97627648     0.03690
C456        C  0.47108291  0.30133514  0.99871512     0.03690
C457        C  0.52639777  0.55292696  0.24989173     0.03690
C458        C  0.54589808  0.52901579  0.24859848     0.03690
C459        C  0.54487322  0.50920260  0.22484317     0.03690
C460        C  0.52314156  0.51233241  0.20289299     0.03690
C461        C  0.50313275  0.53612897  0.20401396     0.03690
C462        C  0.50533576  0.55690173  0.22726564     0.03690
O463        O  0.26156403  0.54652719  0.26112511    -0.86940
C464        C  0.32551316  0.48533983  0.25881317     0.89090
Mg465      Mg  0.22660210  0.54201761  0.29102428     1.58150
O466        O  0.27640081  0.48610432  0.20051420    -0.86670
O467        O  0.27154091  0.55200080  0.21521971    -0.74000
C468        C  0.17314511  0.41676011  0.26776082     0.94140
O469        O  0.28615133  0.50654130  0.31327839    -0.73820
O470        O  0.17195713  0.43719878  0.28583830    -0.81330
Mg471      Mg  0.30326473  0.54037416  0.28087516     1.57960
C472        C  0.24054718  0.41021608  0.17185205     0.94060
O473        O  0.32310686  0.57437251  0.25200278    -0.79590
H474        H  0.26099610  0.50501755  0.16469862    -0.04930
C475        C  0.25739914  0.42740316  0.26291615     0.89000
O476        O  0.19644007  0.52863834  0.25302901    -0.74100
O477        O  0.31168763  0.50674119  0.25062331    -0.86860
O478        O  0.26451858  0.42366641  0.17490888    -0.79670
C479        C  0.34558515  0.46660607  0.17737952     0.94170
C480        C  0.33875397  0.57595074  0.22942825     0.94030
Mg481      Mg  0.21327985  0.44894168  0.21965888     1.57950
O482        O  0.19228087  0.41601219  0.24807342    -0.79590
O483        O  0.23136416  0.48047138  0.18606940    -0.73830
O484        O  0.34580327  0.48801351  0.19483247    -0.79670
O485        O  0.29355421  0.57660435  0.31227964    -0.81390
O486        O  0.17065015  0.49968159  0.29977818    -0.79700
C487        C  0.25671344  0.49100288  0.18285971     0.88460
O488        O  0.20678663  0.48280429  0.24878662    -0.86850
O489        O  0.25481666  0.44138490  0.24033577    -0.86950
O490        O  0.24257030  0.43377871  0.28523877    -0.74010
Mg491      Mg  0.30822488  0.51889964  0.20626987     1.57970
O492        O  0.32632404  0.44705459  0.17868485    -0.81380
H493        H  0.24142677  0.57614273  0.23671444    -0.05110
O494        O  0.24132748  0.49949910  0.29850997    -0.86650
H495        H  0.25796799  0.47888741  0.33284410    -0.04930
H496        H  0.17738429  0.50215097  0.22313103    -0.05110
C497        C  0.26143466  0.49424532  0.31563531     0.88440
C498        C  0.25753970  0.55908137  0.23789079     0.89030
C499        C  0.19283193  0.50421916  0.24080551     0.89070
H500        H  0.27270504  0.40967083  0.26376652    -0.05090
O501        O  0.32086583  0.46047324  0.24791034    -0.74120
Mg502      Mg  0.20754479  0.46882540  0.29237247     1.58000
H503        H  0.34163469  0.48775819  0.27587889    -0.05110
C504        C  0.27296093  0.57613080  0.33053749     0.94060
O505        O  0.19133353  0.53519715  0.32381313    -0.81340
C506        C  0.17149114  0.51629817  0.32132496     0.94120
O507        O  0.34111996  0.55508906  0.21161305    -0.81330
Mg508      Mg  0.29057808  0.44372199  0.21137695     1.58180
O509        O  0.25321337  0.55702003  0.32958200    -0.79660
O510        O  0.21944828  0.41297001  0.18909710    -0.81360
C511        C  0.24453427  0.38015831  0.09711579     0.04530
C512        C  0.24490687  0.39936534  0.12050725    -0.11620
C513        C  0.23789975  0.39024124  0.14797331     0.02030
C514        C  0.23170503  0.36148965  0.15317643    -0.10140
C515        C  0.23484299  0.34084334  0.13120397     0.04520
C516        C  0.24064659  0.35013586  0.10245043    -0.09570
H517        H  0.24998190  0.42202845  0.11717879     0.10120
H518        H  0.22719791  0.35471330  0.17518361     0.07650
H519        H  0.24231218  0.33458053  0.08495279     0.07490
C520        C  0.36671004  0.48389396  0.10303443     0.04530
C521        C  0.39247412  0.50010043  0.10940799    -0.11620
C522        C  0.40534457  0.49832951  0.13744233     0.02030
C523        C  0.39315123  0.47908403  0.15745457    -0.10140
C524        C  0.36561486  0.46745745  0.15283737     0.04520
C525        C  0.35350021  0.46795355  0.12512731    -0.09570
H526        H  0.40126109  0.51479809  0.09351117     0.10120
H527        H  0.40261066  0.47707746  0.17893717     0.07650
H528        H  0.33197887  0.45866020  0.12152366     0.07490
C529        C  0.10138047  0.37942557  0.27468299     0.04530
C530        C  0.12521137  0.39686456  0.28282769    -0.11620
C531        C  0.15148931  0.39367070  0.26831539     0.02030
C532        C  0.15551324  0.36977794  0.25070341    -0.10140
C533        C  0.13689917  0.34601403  0.25248375     0.04520
C534        C  0.10762324  0.35175368  0.26190619    -0.09570
H535        H  0.12146816  0.41645930  0.29527093     0.10120
H536        H  0.17506272  0.36834462  0.23758799     0.07650
H537        H  0.09042200  0.33598753  0.25876932     0.07490
C538        C  0.10143685  0.50856063  0.36223449     0.04530
C539        C  0.11205743  0.51233717  0.39118739    -0.11620
C540        C  0.14296426  0.51396951  0.39653449     0.02030
C541        C  0.16111238  0.50977503  0.37240911    -0.10140
C542        C  0.15075876  0.51224569  0.34457868     0.04520
C543        C  0.12140842  0.50919324  0.33928121    -0.09570
H544        H  0.09642737  0.51391627  0.40851918     0.10120
H545        H  0.18386017  0.50409039  0.37439593     0.07650
H546        H  0.11422141  0.50727274  0.31693884     0.07490
C547        C  0.40324545  0.62519794  0.22478607     0.04530
C548        C  0.38517640  0.60122221  0.21941904    -0.11620
C549        C  0.35546845  0.60255244  0.22540590     0.02030
C550        C  0.34302264  0.62879390  0.23352191    -0.10140
C551        C  0.35995829  0.65393292  0.23622147     0.04520
C552        C  0.39063113  0.65188801  0.23288135    -0.09570
H553        H  0.39499819  0.58041742  0.21471808     0.10120
H554        H  0.31993606  0.62940201  0.23878631     0.07650
H555        H  0.40449339  0.67038406  0.23729057     0.07490
C556        C  0.25389935  0.61429979  0.40002492     0.04530
C557        C  0.25851393  0.59254026  0.37924694    -0.11620
C558        C  0.27025114  0.59884325  0.35236377     0.02030
C559        C  0.27477787  0.62736548  0.34469971    -0.10140
C560        C  0.26498270  0.64994498  0.36255252     0.04520
C561        C  0.25584375  0.64360672  0.39125561    -0.09570
H562        H  0.25472445  0.57009984  0.38480562     0.10120
H563        H  0.28294213  0.63203907  0.32320269     0.07650
H564        H  0.25032274  0.66085659  0.40616759     0.07490
C565        C  0.25666606  0.54658047  0.52645610     0.03690
C566        C  0.25605523  0.52456753  0.54782090     0.03690
C567        C  0.23327441  0.50348506  0.54737034     0.03690
C568        C  0.21128425  0.50412967  0.52529890     0.03690
C569        C  0.21188907  0.52609909  0.50373053     0.03690
C570        C  0.23482154  0.54741328  0.50417821     0.03690
O571        O  0.49148869  0.19658398  0.25741240    -0.86940
C572        C  0.42224043  0.25231174  0.25212777     0.89090
Mg573      Mg  0.52504885  0.20123337  0.28912304     1.58150
O574        O  0.47616678  0.25981340  0.19862297    -0.86670
O575        O  0.48522639  0.19285528  0.21059137    -0.74000
C576        C  0.56946952  0.33212063  0.27695844     0.94140
O577        O  0.46097478  0.23326263  0.30864146    -0.73820
O578        O  0.57311568  0.31055935  0.29324069    -0.81330
Mg579      Mg  0.44789059  0.19967619  0.27379376     1.57960
C580        C  0.50538203  0.34098424  0.17935695     0.94060
O581        O  0.43187905  0.16529771  0.24200160    -0.79590
H582        H  0.49643471  0.24572832  0.16291514    -0.04930
C583        C  0.48563917  0.31441294  0.26837019     0.89000
O584        O  0.55533735  0.22060598  0.25420997    -0.74100
O585        O  0.43917262  0.23330990  0.24379383    -0.86860
O586        O  0.48292566  0.32514195  0.18111855    -0.79670
C587        C  0.40653022  0.27711840  0.17161541     0.94170
C588        C  0.41689004  0.16406978  0.21869730     0.94030
Mg589      Mg  0.53351674  0.30195665  0.22667734     1.57950
O590        O  0.54682808  0.33395926  0.26125838    -0.79590
O591        O  0.52126333  0.27166131  0.18883939    -0.73830
O592        O  0.40966757  0.25181779  0.18208899    -0.79670
O593        O  0.45565899  0.16419634  0.30692598    -0.81390
O594        O  0.57706604  0.24636117  0.30535600    -0.79700
C595        C  0.49763736  0.25857949  0.18252526     0.88460
O596        O  0.54154654  0.26570395  0.25306082    -0.86850
O597        O  0.49050209  0.30248294  0.24483551    -0.86950
O598        O  0.50062269  0.30829259  0.29082573    -0.74010
Mg599      Mg  0.44730566  0.22356953  0.19920658     1.57970
O600        O  0.42304334  0.29801669  0.17837401    -0.81380
H601        H  0.51509574  0.16943477  0.23313212    -0.05110
O602        O  0.50716416  0.24218755  0.30049449    -0.86650
H603        H  0.48558851  0.26046819  0.33343228    -0.04930
H604        H  0.57341520  0.25051762  0.22758342    -0.05110
C605        C  0.48487773  0.24583128  0.31509504     0.88440
C606        C  0.49789149  0.18544052  0.23392585     0.89030
C607        C  0.55744757  0.24603036  0.24415834     0.89070
H608        H  0.46849077  0.33033989  0.26985825    -0.05090
O609        O  0.42554246  0.27838682  0.24462425    -0.74120
Mg610      Mg  0.53865475  0.27591223  0.29760566     1.58000
H611        H  0.40476587  0.24674212  0.26678203    -0.05110
C612        C  0.47579575  0.16433724  0.32596722     0.94060
O613        O  0.55909450  0.20671518  0.32427697    -0.81340
C614        C  0.57782890  0.22681745  0.32430311     0.94120
O615        O  0.41615697  0.18480400  0.20068212    -0.81330
Mg616      Mg  0.45704490  0.30002169  0.21306062     1.58180
O617        O  0.49871137  0.17947132  0.32350061    -0.79660
O618        O  0.52571444  0.34027007  0.19801068    -0.81360
C619        C  0.37801590  0.26697571  0.09832019     0.04530
C620        C  0.39450439  0.28051607  0.12022600    -0.11620
C621        C  0.38474648  0.28063242  0.14871718     0.02030
C622        C  0.35665592  0.27150250  0.15456733    -0.10140
C623        C  0.34174814  0.25349146  0.13483542     0.04520
C624        C  0.35198051  0.25205707  0.10587489    -0.09570
H625        H  0.41651493  0.28793275  0.11563230     0.10120
H626        H  0.34899926  0.27385529  0.17663514     0.07650
H627        H  0.34104374  0.23845547  0.09004798     0.07490
C628        C  0.47979499  0.09766737  0.37101917     0.04530
C629        C  0.47258695  0.11603744  0.34803046    -0.11620
C630        C  0.47424650  0.14585268  0.35140915     0.02030
C631        C  0.48138395  0.15766181  0.37835143    -0.10140
C632        C  0.48701294  0.14012407  0.40238296     0.04520
C633        C  0.48688727  0.10967171  0.39851060    -0.09570
H634        H  0.46844664  0.10700258  0.32667798     0.10120
H635        H  0.48374964  0.18091847  0.38029379     0.07650
H636        H  0.49258719  0.09563208  0.41633025     0.07490
C637        C  0.38818330  0.09596006  0.24471479     0.04530
C638        C  0.40674448  0.11287654  0.22733990    -0.11620
C639        C  0.39719471  0.13903372  0.21576227     0.02030
C640        C  0.36725838  0.14428503  0.21393115    -0.10140
C641        C  0.34741870  0.12617287  0.22814909     0.04520
C642        C  0.35802016  0.10284967  0.24477182    -0.09570
H643        H  0.42980672  0.10802985  0.22573756     0.10120
H644        H  0.35964980  0.16472271  0.20532862     0.07650
H645        H  0.34301993  0.09150305  0.25870578     0.07490
C646        C  0.60500312  0.40237726  0.25661597     0.04530
C647        C  0.58579768  0.37887405  0.25785653    -0.11620
C648        C  0.59159390  0.35504339  0.27502881     0.02030
C649        C  0.61956674  0.35161624  0.28633316    -0.10140
C650        C  0.64238151  0.36959757  0.27684750     0.04520
C651        C  0.63487356  0.39675685  0.26416918    -0.09570
H652        H  0.56533390  0.37963242  0.24602016     0.10120
H653        H  0.62467582  0.33206066  0.29815227     0.07650
H654        H  0.65188054  0.41223157  0.25952025     0.07490
C655        C  0.64754628  0.24660853  0.36281470     0.04530
C656        C  0.63876998  0.24422067  0.39217560    -0.11620
C657        C  0.61007477  0.23416925  0.39850430     0.02030
C658        C  0.59226920  0.22401140  0.37574483    -0.10140
C659        C  0.59982039  0.22913103  0.34718743     0.04520
C660        C  0.62657900  0.24164725  0.34108453    -0.09570
H661        H  0.65354978  0.25041701  0.40950708     0.10120
H662        H  0.57076324  0.21529381  0.38033973     0.07650
H663        H  0.63157186  0.24667711  0.31872692     0.07490
C664        C  0.51198332  0.40836299  0.13525222     0.04530
C665        C  0.50322981  0.39797848  0.10738223    -0.11620
C666        C  0.49634346  0.36813252  0.10358806     0.02030
C667        C  0.49558307  0.35090591  0.12838165    -0.10140
C668        C  0.50695779  0.36033458  0.15468388     0.04520
C669        C  0.51612982  0.38870311  0.15785798    -0.09570
H670        H  0.50147222  0.41283744  0.08947563     0.10120
H671        H  0.48660517  0.32924983  0.12713733     0.07650
H672        H  0.52312229  0.39635710  0.17905337     0.07490
C673        C  0.54367556  0.25106371  0.52536147     0.03690
C674        C  0.52272280  0.25182063  0.54799100     0.03690
C675        C  0.50100439  0.22980885  0.55019280     0.03690
C676        C  0.49874700  0.20835225  0.52790404     0.03690
C677        C  0.51834395  0.20908658  0.50389817     0.03690
C678        C  0.54153313  0.22961433  0.50336425     0.03690
O679        O  0.24026650  0.30410598  0.50981794    -0.86940
C680        C  0.25411421  0.23852221  0.56668652     0.89090
Mg681      Mg  0.20684830  0.30245149  0.47798551     1.58150
O682        O  0.30699449  0.24493230  0.51233199    -0.86670
O683        O  0.28768925  0.31020442  0.51299236    -0.74000
C684        C  0.22440117  0.17549376  0.41975825     0.94140
O685        O  0.19199968  0.26061949  0.53748146    -0.73820
O686        O  0.20427554  0.19400485  0.42259152    -0.81330
Mg687      Mg  0.22664854  0.29307214  0.55278207     1.57960
C688        C  0.33381395  0.17177407  0.46911995     0.94060
O689        O  0.25690514  0.32556383  0.57151406    -0.79590
H690        H  0.33955765  0.26674505  0.49363998    -0.04930
C691        C  0.24377032  0.18601591  0.49916204     0.89000
O692        O  0.24037526  0.28949559  0.44332173    -0.74100
O693        O  0.25962361  0.26081683  0.55321862    -0.86860
O694        O  0.33314983  0.18381428  0.49397368    -0.79670
C695        C  0.33481559  0.22166570  0.58069416     0.94170
C696        C  0.28187023  0.32834248  0.58313373     0.94030
Mg697      Mg  0.27976693  0.21103121  0.45011396     1.57950
O698        O  0.24953248  0.17874542  0.43091199    -0.79590
O699        O  0.31436855  0.24336511  0.46577469    -0.73830
O700        O  0.32180006  0.24578710  0.57891881    -0.79670
O701        O  0.19215427  0.32797510  0.55309991    -0.81390
O702        O  0.18357078  0.25799189  0.42485112    -0.79700
C703        C  0.32130644  0.25207236  0.49094660     0.88460
O704        O  0.24653191  0.24320256  0.44966418    -0.86850
O705        O  0.26604334  0.19979142  0.49303415    -0.86950
O706        O  0.21871165  0.19339040  0.48985554    -0.74010
Mg707      Mg  0.30339964  0.27605807  0.54546675     1.57970
O708        O  0.33388012  0.20293588  0.56048991    -0.81380
H709        H  0.26104717  0.33572406  0.48889649    -0.05110
O710        O  0.19935928  0.25876593  0.49094404    -0.86650
H711        H  0.16691029  0.23692918  0.50979395    -0.04930
H712        H  0.26677432  0.26475160  0.41813026    -0.05110
C713        C  0.18510164  0.25168007  0.51238043     0.88440
C714        C  0.26267803  0.31762326  0.50353641     0.89030
C715        C  0.25175955  0.26553237  0.43613074     0.89070
H716        H  0.24555923  0.16775973  0.51357925    -0.05090
O717        O  0.26533249  0.21448076  0.55954019    -0.74120
Mg718      Mg  0.20276808  0.22766887  0.45773536     1.58000
H719        H  0.23895635  0.23940337  0.58457214    -0.05110
C720        C  0.17232159  0.33178795  0.53424991     0.94060
O721        O  0.17160368  0.30088529  0.44318524    -0.81340
C722        C  0.17043178  0.28207163  0.42309296     0.94120
O723        O  0.30178352  0.30961353  0.58048718    -0.81330
Mg724      Mg  0.29908064  0.20133855  0.52522030     1.58180
O725        O  0.17279804  0.31955953  0.50949750    -0.79660
O726        O  0.31433311  0.17604999  0.44998770    -0.81360
C727        C  0.13919004  0.40178525  0.52178844     0.04530
C728        C  0.11250539  0.39165877  0.50920635    -0.11620
C729        C  0.10363674  0.36243688  0.51346960     0.02030
C730        C  0.12107746  0.34520053  0.53168631    -0.10140
C731        C  0.14945805  0.35335708  0.53865167     0.04520
C732        C  0.15755776  0.38212535  0.53590016    -0.09570
H733        H  0.09980656  0.40583359  0.49550024     0.10120
H734        H  0.11473674  0.32323357  0.53659865     0.07650
H735        H  0.17969230  0.38853166  0.54165147     0.07490
C736        C  0.10259406  0.28542904  0.37875865     0.04530
C737        C  0.12288268  0.29371899  0.40023973    -0.11620
C738        C  0.15219764  0.28634411  0.39733282     0.02030
C739        C  0.16200178  0.27482066  0.37125071    -0.10140
C740        C  0.14303852  0.26992674  0.34776999     0.04520
C741        C  0.11272822  0.27430692  0.35202007    -0.09570
H742        H  0.11502649  0.30047154  0.42136448     0.10120
H743        H  0.18459626  0.26785327  0.36996210     0.07650
H744        H  0.09710350  0.26781890  0.33555196     0.07490
C745        C  0.36082315  0.23242232  0.65656820     0.04530
C746        C  0.39146870  0.23126697  0.65208257    -0.11620
C747        C  0.40250845  0.22184475  0.62498918     0.02030
C748        C  0.38295306  0.21344821  0.60298837    -0.10140
C749        C  0.35305173  0.21743940  0.60638407     0.04520
C750        C  0.34216244  0.22622940  0.63314616    -0.09570
H751        H  0.40640400  0.23839384  0.66893096     0.10120
H752        H  0.39131771  0.20827090  0.58162100     0.07650
H753        H  0.31886658  0.23014427  0.63514473     0.07490
C754        C  0.23649006  0.10054420  0.39310625     0.04530
C755        C  0.23404860  0.12478552  0.41111390    -0.11620
C756        C  0.22019675  0.14972958  0.40216964     0.02030
C757        C  0.21018202  0.15184710  0.37397143    -0.10140
C758        C  0.21991082  0.13172704  0.35327092     0.04520
C759        C  0.23138605  0.10474062  0.36290145    -0.09570
H760        H  0.24358465  0.12458344  0.43266535     0.10120
H761        H  0.20094571  0.17225102  0.36693782     0.07650
H762        H  0.23716612  0.08827181  0.34726750     0.07490
C763        C  0.36560536  0.10094220  0.48105950     0.04530
C764        C  0.39203034  0.11025784  0.49431466    -0.11620
C765        C  0.40129209  0.13927002  0.49102495     0.02030
C766        C  0.38469559  0.15752696  0.47311676    -0.10140
C767        C  0.35647825  0.14991500  0.46489242     0.04520
C768        C  0.34792212  0.12111463  0.46670198    -0.09570
H769        H  0.40406058  0.09570768  0.50823489     0.10120
H770        H  0.39134256  0.17977035  0.46997902     0.07650
H771        H  0.32581118  0.11514826  0.46042243     0.07490
C772        C  0.26802729  0.40175910  0.61251447     0.04530
C773        C  0.27219747  0.37868260  0.59331921    -0.11620
C774        C  0.28578793  0.35342421  0.60166925     0.02030
C775        C  0.29403075  0.34978611  0.63021687    -0.10140
C776        C  0.28216044  0.36808556  0.65144213     0.04520
C777        C  0.27084912  0.39557670  0.64274817    -0.09570
H778        H  0.26395131  0.37990122  0.57129615     0.10120
H779        H  0.30355537  0.32926076  0.63648273     0.07650
H780        H  0.26355435  0.41089357  0.65891485     0.07490
C781        C  0.20254299  0.24198250  0.22327884     0.03690
C782        C  0.22436898  0.23943428  0.20152381     0.03690
C783        C  0.24541441  0.21657344  0.20295570     0.03690
C784        C  0.24431086  0.19628033  0.22634580     0.03690
C785        C  0.22270710  0.19929873  0.24829480     0.03690
C786        C  0.20278634  0.22279722  0.24731056     0.03690
C787        C  0.24468599  0.02868052  0.05043050     0.03690
C788        C  0.24854355  0.05132793  0.02998371     0.03690
C789        C  0.22953000  0.05359211  0.00568089     0.03690
C790        C  0.20555983  0.03439689  0.00256528     0.03690
C791        C  0.20093247  0.01204759  0.02325307     0.03690
C792        C  0.22033297  0.00933968  0.04777802     0.03690
C793        C  0.77706713  0.44776404  0.49132608     0.03690
C794        C  0.75760013  0.44399617  0.46678315     0.03690
C795        C  0.75838314  0.46636426  0.44494670     0.03690
C796        C  0.77987018  0.48898273  0.44542906     0.03690
C797        C  0.80087054  0.49026903  0.46825723     0.03690
C798        C  0.79950823  0.46947240  0.49091021     0.03690
C799        C  0.45547023  0.49382682  0.77570901     0.03690
C800        C  0.45660619  0.47001770  0.75592039     0.03690
C801        C  0.47831410  0.44797010  0.75954685     0.03690
C802        C  0.49970568  0.45088416  0.78218445     0.03690
C803        C  0.49859285  0.47505101  0.80151455     0.03690
C804        C  0.47568130  0.49584278  0.79912200     0.03690
C805        C  0.45621068  0.75739006  0.47854466     0.03690
C806        C  0.47901954  0.75805437  0.45775898     0.03690
C807        C  0.50023832  0.78065185  0.45887060     0.03690
C808        C  0.49890656  0.80244506  0.48091513     0.03690
C809        C  0.47740443  0.80051039  0.50312962     0.03690
C810        C  0.45602821  0.77801909  0.50167661     0.03690
C811        C  0.79654252  0.77712627  0.75884575     0.03690
C812        C  0.79612759  0.75686022  0.78202407     0.03690
C813        C  0.77392035  0.75881441  0.80370287     0.03690
C814        C  0.75174184  0.78050758  0.80133786     0.03690
C815        C  0.75222189  0.80057708  0.77796681     0.03690
C816        C  0.77485993  0.79898624  0.75699335     0.03690
C817        C  0.04590247  0.50863695  0.72675643     0.03690
C818        C  0.04446271  0.52997292  0.74924117     0.03690
C819        C  0.02272576  0.55213269  0.74780177     0.03690
C820        C  0.00113274  0.55130601  0.72535833     0.03690
C821        C  0.00228266  0.52935067  0.70359285     0.03690
C822        C  0.02536228  0.50870553  0.70357140     0.03690
C823        C  0.04920162  0.74496157  0.53588722     0.03690
C824        C  0.04979157  0.72446397  0.51241254     0.03690
C825        C  0.02873807  0.70169895  0.51068788     0.03690
C826        C  0.00606503  0.70011322  0.53155417     0.03690
C827        C  0.00522647  0.72051330  0.55488481     0.03690
C828        C  0.02697475  0.74272507  0.55746004     0.03690
O829        O  0.69192094  0.74955187  0.50206483    -0.86940
C830        C  0.75192028  0.73240397  0.43974575     0.89090
Mg831      Mg  0.69973660  0.78465918  0.53113983     1.58150
O832        O  0.74990101  0.68188776  0.49639518    -0.86670
O833        O  0.68401494  0.70283845  0.50017517    -0.74000
C834        C  0.82634837  0.76035275  0.58380139     0.94140
O835        O  0.73486230  0.79381028  0.46764809    -0.73820
O836        O  0.80678994  0.77957348  0.58384805    -0.81330
Mg837      Mg  0.69826076  0.76071255  0.45760613     1.57960
C838        C  0.82929964  0.65651745  0.53257911     0.94060
O839        O  0.66121513  0.72998618  0.44443121    -0.79590
H840        H  0.72987163  0.65024237  0.51804623    -0.04930
C841        C  0.81282006  0.74351988  0.50252455     0.89000
O842        O  0.71325076  0.75188533  0.56650907    -0.74100
O843        O  0.73047275  0.72759410  0.45514148    -0.86860
O844        O  0.81340783  0.65555654  0.50984825    -0.79670
C845        C  0.76864514  0.65348131  0.42689433     0.94170
C846        C  0.66091442  0.70711851  0.42896481     0.94030
Mg847      Mg  0.79147393  0.70989992  0.55306163     1.57950
O848        O  0.82684448  0.74097491  0.56451515    -0.79590
O849        O  0.75728368  0.67499628  0.54252605    -0.73830
O850        O  0.74416786  0.66591877  0.43038731    -0.79670
O851        O  0.66488612  0.79747053  0.45982102    -0.81390
O852        O  0.74489646  0.80074310  0.58136586    -0.79700
C853        C  0.74511174  0.66812409  0.51870919     0.88460
O854        O  0.75823162  0.74176297  0.55483944    -0.86850
O855        O  0.79767153  0.72252273  0.50942806    -0.86950
O856        O  0.80823544  0.76843454  0.51328880    -0.74010
Mg857      Mg  0.71569236  0.68523967  0.46530660     1.57970
O858        O  0.78861729  0.65396784  0.44598975    -0.81380
H859        H  0.66171261  0.73029401  0.52655569    -0.05110
O860        O  0.74266279  0.78745466  0.51376593    -0.86650
H861        H  0.76469890  0.81698929  0.49099184    -0.04930
H862        H  0.73863838  0.72349794  0.58885594    -0.05110
C863        C  0.74815244  0.80022149  0.49103381     0.88440
C864        C  0.67841850  0.72790803  0.51021740     0.89030
C865        C  0.73697415  0.73824577  0.57082063     0.89070
H866        H  0.83008398  0.74067382  0.48695126    -0.05090
O867        O  0.77670333  0.72133283  0.44525043    -0.74120
Mg868      Mg  0.77469945  0.78396842  0.54707612     1.58000
H869        H  0.74966654  0.74681625  0.42150665    -0.05110
C870        C  0.66749803  0.81872912  0.47720848     0.94060
O871        O  0.70923460  0.82389336  0.55989572    -0.81340
C872        C  0.72884722  0.82279269  0.57923349     0.94120
O873        O  0.68059268  0.68802456  0.43102058    -0.81330
Mg874      Mg  0.79298718  0.68892403  0.47931935     1.58180
O875        O  0.68314568  0.81731417  0.49984167    -0.79660
O876        O  0.82734303  0.67680620  0.55093788    -0.81360
C877        C  0.60356869  0.86844332  0.47223468     0.04530
C878        C  0.62177967  0.84501248  0.46542008    -0.11620
C879        C  0.65112676  0.84571334  0.47328777     0.02030
C880        C  0.66292253  0.87108045  0.48502374    -0.10140
C881        C  0.64654574  0.89659771  0.48796877     0.04520
C882        C  0.61603971  0.89475312  0.48213897    -0.09570
H883        H  0.61207085  0.82455261  0.45893267     0.10120
H884        H  0.68488510  0.87008256  0.49373013     0.07650
H885        H  0.60169661  0.91278895  0.48632290     0.07490
C886        C  0.77851341  0.59141319  0.37630711     0.04530
C887        C  0.78327893  0.60959944  0.40026572    -0.11620
C888        C  0.77301393  0.63773682  0.39993713     0.02030
C889        C  0.76242028  0.64948788  0.37440831    -0.10140
C890        C  0.76207914  0.63359753  0.34854461     0.04520
C891        C  0.76840526  0.60353584  0.34979302    -0.09570
H892        H  0.79022127  0.60041078  0.42076080     0.10120
H893        H  0.75450454  0.67158958  0.37466914     0.07650
H894        H  0.76505539  0.58989041  0.33095877     0.07490
C895        C  0.90318239  0.62740381  0.52122448     0.04530
C896        C  0.89497390  0.60091864  0.50744279    -0.11620
C897        C  0.86553651  0.59086677  0.50935002     0.02030
C898        C  0.84607008  0.60686478  0.52661682    -0.10140
C899        C  0.85258214  0.63493680  0.53501663     0.04520
C900        C  0.88146446  0.64434440  0.53433012    -0.09570
H901        H  0.91077462  0.58933841  0.49446264     0.10120
H902        H  0.82388753  0.59942475  0.52995855     0.07650
H903        H  0.88655261  0.66624203  0.54121978     0.07490
C904        C  0.59871285  0.73772412  0.39532360     0.04530
C905        C  0.61140923  0.71582207  0.41216655    -0.11620
C906        C  0.63912251  0.70566326  0.40570390     0.02030
C907        C  0.64954044  0.70871867  0.37765729    -0.10140
C908        C  0.63547658  0.72728651  0.35811848     0.04520
C909        C  0.61044797  0.74285605  0.36738282    -0.09570
H910        H  0.60264983  0.71057764  0.43323504     0.10120
H911        H  0.67091051  0.70004383  0.37237369     0.07650
H912        H  0.60160767  0.75972124  0.35379994     0.07490
C913        C  0.89912522  0.74665916  0.61808809     0.04530
C914        C  0.89355465  0.75367101  0.64758284    -0.11620
C915        C  0.86509494  0.76331802  0.65554620     0.02030
C916        C  0.84434010  0.76902557  0.63386695    -0.10140
C917        C  0.84931269  0.75990131  0.60569907     0.04520
C918        C  0.87540394  0.74642392  0.59895467    -0.09570
H919        H  0.91044471  0.75129422  0.66387726     0.10120
H920        H  0.82295066  0.77734615  0.63962965     0.07650
H921        H  0.87791303  0.73703297  0.57754872     0.07490
C922        C  0.74749426  0.85884321  0.64983975     0.04530
C923        C  0.74444330  0.83869642  0.62736507    -0.11620
C924        C  0.73301417  0.84604434  0.60054592     0.02030
C925        C  0.72914789  0.87508753  0.59381968    -0.10140
C926        C  0.73680553  0.89664621  0.61407835     0.04520
C927        C  0.74470402  0.88859284  0.64280513    -0.09570
H928        H  0.75030898  0.81635474  0.63107819     0.10120
H929        H  0.72238591  0.88103044  0.57211338     0.07650
H930        H  0.74890209  0.90511732  0.65895641     0.07490
C931        C  0.75070490  0.71092620  0.23122785     0.03690
C932        C  0.73006617  0.71028283  0.25416573     0.03690
C933        C  0.70750489  0.73147609  0.25560598     0.03690
C934        C  0.70562139  0.75343263  0.23403232     0.03690
C935        C  0.72719631  0.75474237  0.21162353     0.03690
C936        C  0.74969798  0.73341476  0.21043808     0.03690
C937        C  0.78036718  0.99098695  0.94986946     0.03690
C938        C  0.75839971  0.96886882  0.94766714     0.03690
C939        C  0.75607182  0.94688289  0.96963127     0.03690
C940        C  0.77563270  0.94793309  0.99397175     0.03690
C941        C  0.79771945  0.96964918  0.99576379     0.03690
C942        C  0.79983718  0.99134065  0.97402310     0.03690
C943        C  0.72563423  0.50428470  0.04616323     0.03690
C944        C  0.74884307  0.52459250  0.05002255     0.03690
C945        C  0.75353379  0.54673571  0.02896781     0.03690
C946        C  0.73476421  0.54845191  0.00427517     0.03690
C947        C  0.71040305  0.52956931  0.00180718     0.03690
C948        C  0.70659959  0.50670477  0.02187864     0.03690
O949        O  0.78092354  0.21879397  0.97869100    -0.86940
C950        C  0.69486539  0.19546564  0.98627489     0.89090
Mg951      Mg  0.80666342  0.23171392  0.01484747     1.58150
O952        O  0.70719679  0.26363221  0.95543440    -0.86670
O953        O  0.76714330  0.23598827  0.93690720    -0.74000
C954        C  0.72613756  0.32472160  0.08331020     0.94140
O955        O  0.74984331  0.18510523  0.03246725    -0.73820
O956        O  0.74328971  0.30385055  0.08817974    -0.81330
Mg957      Mg  0.75663905  0.17915353  0.98396971     1.57960
C958        C  0.66056797  0.33373319  0.98270265     0.94060
O959        O  0.76325142  0.16457424  0.93769176    -0.79590
H960        H  0.72497305  0.28769447  0.92433151    -0.04930
C961        C  0.68730859  0.26145752  0.04009115     0.89000
O962        O  0.79992191  0.27938803  0.00516749    -0.74100
O963        O  0.71761592  0.20258438  0.97392995    -0.86860
O964        O  0.65490990  0.30918387  0.97124493    -0.79670
C965        C  0.64779588  0.22789923  0.92215692     0.94170
C966        C  0.74804142  0.16582016  0.91472523     0.94030
Mg967      Mg  0.72007250  0.31236072  0.01285279     1.57950
O968        O  0.71299859  0.32776882  0.05921192    -0.79590
O969        O  0.72815778  0.30494265  0.96468016    -0.73830
O970        O  0.67136525  0.21352921  0.92213777    -0.79670
O971        O  0.79786364  0.15589400  0.99399629    -0.81390
O972        O  0.80249812  0.27443122  0.07671065    -0.79700
C973        C  0.71979783  0.28557562  0.94705063     0.88460
O974        O  0.75753206  0.28853331  0.02426976    -0.86850
O975        O  0.69319605  0.27422765  0.01744921    -0.86950
O976        O  0.70690942  0.25472734  0.05834813    -0.74010
Mg977      Mg  0.71837933  0.22519541  0.93340254     1.57970
O978        O  0.64288140  0.24770620  0.94077294    -0.81380
H979        H  0.80913359  0.23690627  0.95128025    -0.05110
O980        O  0.76789141  0.22779332  0.04077976    -0.86650
H981        H  0.75332705  0.20265451  0.07266637    -0.04930
H982        H  0.78217393  0.31946619  0.00675272    -0.05110
C983        C  0.75734641  0.20507054  0.04974543     0.88440
C984        C  0.78681985  0.23041515  0.95546032     0.89030
C985        C  0.78001113  0.29690301  0.01232867     0.89070
H986        H  0.66498496  0.25478026  0.04388129    -0.05090
O987        O  0.67475546  0.21365519  0.99135827    -0.74120
Mg988      Mg  0.75555187  0.26484207  0.06393476     1.58000
H989        H  0.69224365  0.17339126  0.99336771    -0.05110
C990        C  0.81918799  0.16200622  0.01062274     0.94060
O991        O  0.83298255  0.24526456  0.05321042    -0.81340
C992        C  0.82747457  0.26288638  0.07361259     0.94120
O993        O  0.72946287  0.18551187  0.91045971    -0.81330
Mg994      Mg  0.66800401  0.26170076  0.98049887     1.58180
O995        O  0.82126935  0.18610917  0.02366562    -0.79660
O996        O  0.68175195  0.33755342  0.00008655    -0.81360
C997        C  0.58554498  0.25098221  0.87971738     0.04530
C998        C  0.59907604  0.23424457  0.90117249    -0.11620
C999        C  0.62747627  0.22467587  0.89752331     0.02030
C1000       C  0.63888783  0.22304492  0.86953686    -0.10140
C1001       C  0.62411905  0.23582263  0.84608237     0.04520
C1002       C  0.59768205  0.25111035  0.85147478    -0.09570
H1003       H  0.59015799  0.23404902  0.92290418     0.10120
H1004       H  0.66097764  0.21509712  0.86649219     0.07650
H1005       H  0.58795173  0.26423666  0.83467148     0.07490
C1006       C  0.76541665  0.09500101  0.87906110     0.04530
C1007       C  0.76901495  0.11952054  0.89679680    -0.11620
C1008       C  0.75077848  0.14315207  0.89278455     0.02030
C1009       C  0.73306425  0.14398063  0.86834753    -0.10140
C1010       C  0.74013270  0.12683827  0.84448292     0.04520
C1011       C  0.75406322  0.09973682  0.85037588    -0.09570
H1012       H  0.78179084  0.11804542  0.91658635     0.10120
H1013       H  0.71814993  0.16196548  0.86539237     0.07650
H1014       H  0.75562908  0.08324512  0.83377455     0.07490
C1015       C  0.86438908  0.09496667  0.00111669     0.04530
C1016       C  0.89263306  0.10500443  0.00949654    -0.11620
C1017       C  0.89586320  0.13406187  0.01959310     0.02030
C1018       C  0.87031403  0.15019161  0.02462479    -0.10140
C1019       C  0.84357877  0.14160185  0.01283386     0.04520
C1020       C  0.84136467  0.11474699  0.99975220    -0.09570
H1021       H  0.91130209  0.09075029  0.00801867     0.10120
H1022       H  0.87185851  0.17110203  0.03518911     0.07650
H1023       H  0.82049906  0.10796230  0.99067627     0.07490
C1024       C  0.89904059  0.25894252  0.11360404     0.04530
C1025       C  0.87838367  0.25949344  0.09118061    -0.11620
C1026       C  0.84970558  0.26763368  0.09614981     0.02030
C1027       C  0.84126371  0.27543794  0.12405493    -0.10140
C1028       C  0.85982294  0.27089715  0.14796500     0.04520
C1029       C  0.88957840  0.26344931  0.14261294    -0.09570
H1030       H  0.88489278  0.25357689  0.06937193     0.10120
H1031       H  0.81893536  0.28239499  0.12759411     0.07650
H1032       H  0.90481581  0.26088063  0.16041635     0.07490
C1033       C  0.59217213  0.37802226  0.97682734     0.04530
C1034       C  0.60306077  0.40587907  0.98392350    -0.11620
C1035       C  0.63363315  0.41016454  0.98658473     0.02030
C1036       C  0.65211899  0.38617637  0.98423639    -0.10140
C1037       C  0.64149519  0.35873137  0.97758514     0.04520
C1038       C  0.61182503  0.35514262  0.97205723    -0.09570
H1039       H  0.58808113  0.42350816  0.98803508     0.10120
H1040       H  0.67524122  0.38873500  0.98894687     0.07650
H1041       H  0.60341757  0.33356821  0.96799403     0.07490
C1042       C  0.72563819  0.39911557  0.11488848     0.04530
C1043       C  0.71699552  0.37553932  0.09752407    -0.11620
C1044       C  0.72418853  0.34751623  0.10535769     0.02030
C1045       C  0.73531151  0.34247313  0.13281852    -0.10140
C1046       C  0.73831788  0.36469893  0.15330622     0.04520
C1047       C  0.73510688  0.39374836  0.14386073    -0.09570
H1048       H  0.70825037  0.37931664  0.07601148     0.10120
H1049       H  0.74127026  0.32057731  0.13866551     0.07650
H1050       H  0.74024718  0.41149960  0.15836469     0.07490
C1051       C  0.75031458  0.30188571  0.28068045     0.03690
C1052       C  0.75277565  0.27957376  0.30169982     0.03690
C1053       C  0.77672174  0.25966151  0.30071764     0.03690
C1054       C  0.79711900  0.26088924  0.27737700     0.03690
C1055       C  0.79403184  0.28250915  0.25560572     0.03690
C1056       C  0.77067270  0.30297863  0.25727265     0.03690
O1057       O  0.81544323  0.00943500  0.24211837    -0.86940
C1058       C  0.75704192  0.07412034  0.25404864     0.89090
Mg1059     Mg  0.80889873  0.97645888  0.21020618     1.58150
O1060       O  0.75900882  0.01761543  0.30420934    -0.86670
O1061       O  0.82600849  0.01418021  0.28784919    -0.74000
C1062       C  0.67375990  0.92932243  0.22821181     0.94140
O1063       O  0.77368184  0.03893778  0.19489159    -0.73820
O1064       O  0.69439272  0.92818049  0.20983090    -0.81330
Mg1065     Mg  0.80951442  0.05326219  0.22739612     1.57960
C1066       C  0.67847080  0.99162779  0.33053851     0.94060
O1067       O  0.84552409  0.07284134  0.25715028    -0.79590
H1068       H  0.77859589  0.99495102  0.33555587    -0.04930
C1069       C  0.69570891  0.01074104  0.24216997     0.89000
O1070       O  0.79182438  0.94443136  0.24442838    -0.74100
O1071       O  0.77809889  0.05852475  0.26006043    -0.86860
O1072       O  0.70046637  0.00779260  0.33262475    -0.79670
C1073       C  0.74150365  0.08583522  0.33511840     0.94170
C1074       C  0.84617694  0.08660438  0.28125110     0.94030
Mg1075     Mg  0.71174394  0.96169346  0.27905558     1.57950
O1076       O  0.67411232  0.94752627  0.24891075    -0.79590
O1077       O  0.74789419  0.97251215  0.31270531    -0.73830
O1078       O  0.76566921  0.08286946  0.32228888    -0.79670
O1079       O  0.84252821  0.04870477  0.19123554    -0.81390
O1080       O  0.75941066  0.92543805  0.18705690    -0.79700
C1081       C  0.76260973  0.99523243  0.31826388     0.88460
O1082       O  0.74486226  0.95286182  0.24803104    -0.86850
O1083       O  0.71080147  0.00445326  0.26341445    -0.86950
O1084       O  0.69928921  0.99788931  0.21812803    -0.74010
Mg1085     Mg  0.79311990  0.04838469  0.30287819     1.57970
O1086       O  0.72063893  0.06833244  0.33171696    -0.81380
H1087       H  0.84831528  0.98768756  0.26061742    -0.05110
O1088       O  0.76580155  0.99279969  0.20174453    -0.86650
H1089       H  0.74494392  0.01513517  0.17099458    -0.04930
H1090       H  0.76471931  0.92165202  0.27056282    -0.05110
C1091       C  0.76090571  0.01535276  0.18836636     0.88440
C1092       C  0.83083177  0.00320298  0.26315841     0.89030
C1093       C  0.76678529  0.93879476  0.25488132     0.89070
H1094       H  0.67928228  0.02742678  0.24405585    -0.05090
O1095       O  0.73172827  0.06891143  0.26380506    -0.74120
Mg1096     Mg  0.73105094  0.96159380  0.20484260     1.58000
H1097       H  0.76006857  0.09198684  0.23936811    -0.05110
C1098       C  0.84197950  0.02877619  0.17223238     0.94060
O1099       O  0.80338293  0.94215215  0.17510736    -0.81340
C1100       C  0.78299450  0.92368407  0.17267448     0.94120
O1101       O  0.82763022  0.08239828  0.30098493    -0.81330
Mg1102     Mg  0.71642114  0.03569980  0.29689381     1.58180
O1103       O  0.82883036  0.00495981  0.17635086    -0.79660
O1104       O  0.67616460  0.97312724  0.31036518    -0.81360
C1105       C  0.59966992  0.89460408  0.24007303     0.04530
C1106       C  0.62131055  0.91564456  0.23494262    -0.11620
C1107       C  0.64993597  0.90775351  0.22758616     0.02030
C1108       C  0.65699886  0.87845571  0.22533817    -0.10140
C1109       C  0.63637055  0.85701984  0.23192649     0.04520
C1110       C  0.60753169  0.86509262  0.23910742    -0.09570
H1111       H  0.61601757  0.93834382  0.23747500     0.10120
H1112       H  0.67943731  0.87223924  0.22106089     0.07650
H1113       H  0.59159844  0.84865252  0.24440952     0.07490
C1114       C  0.76900214  0.88740456  0.10249918     0.04530
C1115       C  0.75690648  0.86130351  0.11320078    -0.11620
C1116       C  0.76028587  0.85416684  0.14294835     0.02030
C1117       C  0.77723713  0.87279887  0.16042028    -0.10140
C1118       C  0.78447560  0.90036450  0.15120943     0.04520
C1119       C  0.78176998  0.90713355  0.12196957    -0.09570
H1120       H  0.74443518  0.84749638  0.09875338     0.10120
H1121       H  0.78187484  0.86756026  0.18278925     0.07650
H1122       H  0.78747736  0.92864635  0.11468483     0.07490
C1123       C  0.75354516  0.15737343  0.37036684     0.04530
C1124       C  0.75647156  0.13357093  0.35197983    -0.11620
C1125       C  0.73902229  0.10952183  0.35562592     0.02030
C1126       C  0.72346795  0.10637022  0.38108113    -0.10140
C1127       C  0.73129021  0.12359077  0.40501381     0.04520
C1128       C  0.74378252  0.15149902  0.39922851    -0.09570
H1129       H  0.76940176  0.13534488  0.33241444     0.10120
H1130       H  0.71131578  0.08651429  0.38439059     0.07650
H1131       H  0.74632430  0.16738230  0.41632384     0.07490
C1132       C  0.90280335  0.04075018  0.11965569     0.04530
C1133       C  0.89160548  0.02604721  0.09476341    -0.11620
C1134       C  0.86264845  0.01462113  0.09486006     0.02030
C1135       C  0.84766124  0.01547586  0.12117358    -0.10140
C1136       C  0.85728395  0.03204898  0.14457401     0.04520
C1137       C  0.88362717  0.04702106  0.14261091    -0.09570
H1138       H  0.90592657  0.02236007  0.07659493     0.10120
H1139       H  0.82825061  0.00239233  0.12387359     0.07650
H1140       H  0.89206751  0.05775658  0.16187025     0.07490
C1141       C  0.91071039  0.12550003  0.25900867     0.04530
C1142       C  0.89574166  0.10512545  0.27583160    -0.11620
C1143       C  0.86728530  0.11029157  0.28433275     0.02030
C1144       C  0.85682321  0.13860272  0.28450451    -0.10140
C1145       C  0.87316717  0.16100265  0.27198890     0.04520
C1146       C  0.89985261  0.15415954  0.25790359    -0.09570
H1147       H  0.90378074  0.08313141  0.27729994     0.10120
H1148       H  0.83451990  0.14269689  0.29130275     0.07650
H1149       H  0.91075931  0.17023218  0.24487558     0.07490
C1150       C  0.60518793  0.98331970  0.36356760     0.04530
C1151       C  0.62698744  0.99148770  0.34387615    -0.11620
C1152       C  0.65573574  0.99384491  0.35219230     0.02030
C1153       C  0.66256325  0.99730001  0.38097498    -0.10140
C1154       C  0.64129899  0.99298063  0.40223682     0.04520
C1155       C  0.61246710  0.98474663  0.39368525    -0.09570
H1156       H  0.62234786  0.99543942  0.32129473     0.10120
H1157       H  0.68504008  0.00215255  0.38688987     0.07650
H1158       H  0.59676595  0.97914607  0.41010962     0.07490
C1159       C  0.75249432  0.02511562  0.54686107     0.03690
C1160       C  0.74984494  0.04705871  0.52512155     0.03690
C1161       C  0.72701619  0.04552927  0.50397428     0.03690
C1162       C  0.70794072  0.02118458  0.50374616     0.03690
C1163       C  0.71033034  0.99956818  0.52552696     0.03690
C1164       C  0.73222657  0.00165576  0.54727812     0.03690
O1165       O  0.75919055  0.50708003  0.69436492    -0.86940
C1166       C  0.75603381  0.44660216  0.75752092     0.89090
Mg1167     Mg  0.78944281  0.54188224  0.69467354     1.58150
O1168       O  0.69968105  0.49741419  0.75265854    -0.86670
O1169       O  0.71343689  0.49644457  0.68638214    -0.74000
C1170       C  0.77889568  0.59285678  0.82694165     0.94140
O1171       O  0.81252809  0.48275233  0.73353688    -0.73820
O1172       O  0.79705981  0.59382053  0.80620516    -0.81330
Mg1173     Mg  0.77792349  0.46526555  0.70193574     1.57960
C1174       C  0.67252037  0.53495384  0.82717281     0.94060
O1175       O  0.74783362  0.44511854  0.66854090    -0.79590
H1176       H  0.66713745  0.51681203  0.73112283    -0.04930
C1177       C  0.76484384  0.51359736  0.81033350     0.89000
O1178       O  0.75476340  0.57356036  0.71101071    -0.74100
O1179       O  0.74798568  0.46002980  0.73586965    -0.86860
O1180       O  0.67376118  0.51305561  0.81077022    -0.79670
C1181       C  0.67684620  0.42830729  0.77786942     0.94170
C1182       C  0.72730940  0.42675783  0.66989459     0.94030
Mg1183     Mg  0.72432980  0.56041143  0.79106771     1.57950
O1184       O  0.75498875  0.57894989  0.82514572    -0.79590
O1185       O  0.69051369  0.54368102  0.75744749    -0.73830
O1186       O  0.69023580  0.42943876  0.75393771    -0.79670
O1187       O  0.80984988  0.46967009  0.66626392    -0.81390
O1188       O  0.81530189  0.59585613  0.73884971    -0.79700
C1189       C  0.68495520  0.51896520  0.74647789     0.88460
O1190       O  0.75492933  0.56692508  0.75774415    -0.86850
O1191       O  0.74187740  0.51838405  0.79703707    -0.86950
O1192       O  0.78857631  0.52594939  0.80347075    -0.74010
Mg1193     Mg  0.70366700  0.46343490  0.72214142     1.57970
O1194       O  0.67729384  0.44901851  0.79584788    -0.81380
H1195       H  0.73650148  0.52451787  0.66170478    -0.05110
O1196       O  0.80251691  0.52880496  0.73724944    -0.86650
H1197       H  0.83711828  0.51106328  0.75694508    -0.04930
H1198       H  0.73019810  0.59716005  0.73893104    -0.05110
C1199       C  0.81835512  0.50794052  0.74289793     0.88440
C1200       C  0.73660523  0.51000823  0.67993988     0.89030
C1201       C  0.74621503  0.58018999  0.73625517     0.89070
H1202       H  0.76484378  0.49813756  0.82782930    -0.05090
O1203       O  0.74590633  0.45255334  0.78236871    -0.74120
Mg1204     Mg  0.79970518  0.56071915  0.76989937     1.58000
H1205       H  0.77240965  0.42988089  0.75533940    -0.05110
C1206       C  0.82756539  0.49033222  0.66301023     0.94060
O1207       O  0.82209231  0.57811938  0.69438842    -0.81340
C1208       C  0.82641659  0.59729711  0.71360811     0.94120
O1209       O  0.70910272  0.42670216  0.69045011    -0.81330
Mg1210     Mg  0.71033786  0.48485881  0.79586868     1.58180
O1211       O  0.82437627  0.51471717  0.67507829    -0.79660
O1212       O  0.69195651  0.55441669  0.82699141    -0.81360
C1213       C  0.60868700  0.38642991  0.78520656     0.04530
C1214       C  0.63066628  0.40600649  0.79372798    -0.11620
C1215       C  0.65868394  0.40286235  0.78282225     0.02030
C1216       C  0.66640510  0.37721926  0.76928869    -0.10140
C1217       C  0.64705475  0.35382855  0.76714828     0.04520
C1218       C  0.61704928  0.35913610  0.77354351    -0.09570
H1219       H  0.62456010  0.42664676  0.80317478     0.10120
H1220       H  0.68781411  0.37590362  0.75940480     0.07650
H1221       H  0.60046602  0.34319696  0.76853976     0.07490
C1222       C  0.86813280  0.48477857  0.59413571     0.04530
C1223       C  0.89668483  0.49369181  0.60284624    -0.11620
C1224       C  0.90230180  0.49895022  0.63273175     0.02030
C1225       C  0.87881960  0.49815653  0.65197070    -0.10140
C1226       C  0.85196585  0.48725296  0.64359988     0.04520
C1227       C  0.84713846  0.47893334  0.61523958    -0.09570
H1228       H  0.91368480  0.49680473  0.58694523     0.10120
H1229       H  0.88168930  0.50535429  0.67422897     0.07650
H1230       H  0.82542976  0.47169895  0.60885929     0.07490
C1231       C  0.60213775  0.51528666  0.86266762     0.04530
C1232       C  0.61046224  0.51846644  0.89217648    -0.11620
C1233       C  0.63813556  0.53097887  0.89890770     0.02030
C1234       C  0.65481750  0.54304999  0.87660369    -0.10140
C1235       C  0.64892252  0.53549130  0.84817646     0.04520
C1236       C  0.62318808  0.52106483  0.84153362    -0.09570
H1237       H  0.59639010  0.51077048  0.90924869     0.10120
H1238       H  0.67552179  0.55345283  0.88165303     0.07650
H1239       H  0.61941105  0.51434652  0.81927306     0.07490
C1240       C  0.74083580  0.39121857  0.59851756     0.04530
C1241       C  0.73402969  0.41202432  0.61944561    -0.11620
C1242       C  0.72652793  0.40441739  0.64750569     0.02030
C1243       C  0.72509972  0.37539802  0.65522138    -0.10140
C1244       C  0.73290758  0.35363378  0.63548673     0.04520
C1245       C  0.74082973  0.36153525  0.60673525    -0.09570
H1246       H  0.73602603  0.43477180  0.61424359     0.10120
H1247       H  0.72029569  0.36977944  0.67747513     0.07650
H1248       H  0.74720423  0.34504717  0.59130533     0.07490
C1249       C  0.77139289  0.61591897  0.90437097     0.04530
C1250       C  0.77288594  0.64633416  0.90094953    -0.11620
C1251       C  0.78111848  0.65811482  0.87391368     0.02030
C1252       C  0.78806377  0.63951039  0.85090475    -0.10140
C1253       C  0.78360458  0.60993292  0.85330588     0.04520
C1254       C  0.77595300  0.59823300  0.88001895    -0.09570
H1255       H  0.76694889  0.66055595  0.91865239     0.10120
H1256       H  0.79256780  0.64850877  0.82972983     0.07650
H1257       H  0.77192887  0.57518656  0.88143744     0.07490
C1258       C  0.89846558  0.62460702  0.72564740     0.04530
C1259       C  0.89042213  0.64944936  0.74198158    -0.11620
C1260       C  0.86151023  0.66047293  0.73968665     0.02030
C1261       C  0.84204229  0.64697182  0.72020242    -0.10140
C1262       C  0.84830290  0.61985470  0.70904945     0.04520
C1263       C  0.87719820  0.61064864  0.70855315    -0.09570
H1264       H  0.90568225  0.65869785  0.75745168     0.10120
H1265       H  0.81977896  0.65467647  0.71797128     0.07650
H1266       H  0.88208086  0.58973489  0.69899747     0.07490
C1267       C  0.72193707  0.20398906  0.74656635     0.03690
C1268       C  0.70212785  0.22769187  0.74691206     0.03690
C1269       C  0.70498726  0.25005783  0.72592322     0.03690
C1270       C  0.72732820  0.24903099  0.70435292     0.03690
C1271       C  0.74822161  0.22605279  0.70468125     0.03690
C1272       C  0.74559638  0.20378877  0.72627043     0.03690
C1273       C  0.95485923  0.99812748  0.77389057     0.03690
C1274       C  0.95940973  0.97610917  0.75282386     0.03690
C1275       C  0.98340893  0.95652281  0.75546656     0.03690
C1276       C  0.00223342  0.95782540  0.78024304     0.03690
C1277       C  0.99803649  0.98072316  0.80095796     0.03690
C1278       C  0.97392156  0.00016990  0.79813853     0.03690
O1279       O  0.02828206  0.28124351  0.72098359    -0.86940
C1280       C  0.01063705  0.31193689  0.80161355     0.89090
Mg1281     Mg  0.99318472  0.27148207  0.69192144     1.58150
O1282       O  0.04239887  0.24354141  0.79883194    -0.86670
O1283       O  0.06884540  0.26563559  0.74080146    -0.74000
C1284       C  0.91779648  0.17903032  0.76287648     0.94140
O1285       O  0.97327844  0.32198416  0.74236553    -0.73820
O1286       O  0.91343050  0.20070278  0.74668630    -0.81330
Mg1287     Mg  0.02343777  0.32311766  0.74063455     1.57960
C1288       C  0.00711532  0.17683037  0.84372982     0.94060
O1289       O  0.07146312  0.33090504  0.73699027    -0.79590
H1290       H  0.07575324  0.21865268  0.78640667    -0.04930
C1291       C  0.95421771  0.24573406  0.80793040     0.89000
O1292       O  0.99890185  0.22304510  0.69849124    -0.74100
O1293       O  0.02593571  0.30277906  0.78161184    -0.86860
O1294       O  0.01820931  0.20121616  0.85074145    -0.79670
C1295       C  0.06870828  0.28244883  0.85738968     0.94170
C1296       C  0.09049912  0.33497602  0.75645257     0.94030
Mg1297     Mg  0.98656543  0.19513740  0.77926251     1.57950
O1298       O  0.94020497  0.17703197  0.77912474    -0.79590
O1299       O  0.03565676  0.20216734  0.77739998    -0.73830
O1300       O  0.06735187  0.29765030  0.83477557    -0.79670
O1301       O  0.02229712  0.34341002  0.69762721    -0.81390
O1302       O  0.93040430  0.23251009  0.69095617    -0.79700
C1303       C  0.05231254  0.22121069  0.78815222     0.88460
O1304       O  0.97885059  0.21762003  0.74044932    -0.86850
O1305       O  0.97815199  0.23401346  0.80452882    -0.86950
O1306       O  0.93775418  0.25153346  0.78664474    -0.74010
Mg1307     Mg  0.06619961  0.28094165  0.78861604     1.57970
O1308       O  0.05015268  0.26244085  0.86207366    -0.81380
H1309       H  0.05839569  0.25946182  0.69830969    -0.05110
O1310       O  0.96414725  0.27804190  0.72835710    -0.86650
H1311       H  0.93211634  0.30597449  0.73768084    -0.04930
H1312       H  0.99436710  0.18405791  0.71782012    -0.05110
C1313       C  0.95536578  0.30204296  0.73598645     0.88440
C1314       C  0.05197694  0.26853879  0.71900108     0.89030
C1315       C  0.99055059  0.20709400  0.71892143     0.89070
H1316       H  0.94764440  0.25220514  0.82947787    -0.05090
O1317       O  0.00289316  0.29561438  0.82223260    -0.74120
Mg1318     Mg  0.93849860  0.24123057  0.73826919     1.58000
H1319       H  0.00347959  0.33418307  0.80143282    -0.05110
C1320       C  0.00603856  0.33788889  0.67612045     0.94060
O1321       O  0.95494361  0.26356720  0.66371199    -0.81340
C1322       C  0.93302660  0.24760769  0.66826644     0.94120
O1323       O  0.09155388  0.31994822  0.77908189    -0.81330
Mg1324     Mg  0.01214669  0.24795254  0.83366167     1.58180
O1325       O  0.98848876  0.31681463  0.67603801    -0.79660
O1326       O  0.99434880  0.17265438  0.81967000    -0.81360
C1327       C  0.89266812  0.24373873  0.59786331     0.04530
C1328       C  0.91497331  0.24796138  0.61822162    -0.11620
C1329       C  0.90927804  0.24691568  0.64723811     0.02030
C1330       C  0.88061553  0.24597611  0.65663052    -0.10140
C1331       C  0.85729402  0.23847287  0.63796652     0.04520
C1332       C  0.86356020  0.23798201  0.60755338    -0.09570
H1333       H  0.93737210  0.25150519  0.61141201     0.10120
H1334       H  0.87705206  0.25134965  0.67911363     0.07650
H1335       H  0.84677579  0.23289440  0.59179225     0.07490
C1336       C  0.99681737  0.10100244  0.86993898     0.04530
C1337       C  0.00757583  0.10254028  0.89872850    -0.11620
C1338       C  0.01790914  0.12942436  0.90966667     0.02030
C1339       C  0.02105038  0.15298067  0.89073838    -0.10140
C1340       C  0.00804428  0.15199279  0.86347844     0.04520
C1341       C  0.99342842  0.12691201  0.85505098    -0.09570
H1342       H  0.00707644  0.08384061  0.91263903     0.10120
H1343       H  0.02983906  0.17327315  0.89876083     0.07650
H1344       H  0.98036694  0.12691688  0.83542061     0.07490
C1345       C  0.88715899  0.10277616  0.76056587     0.04530
C1346       C  0.85767538  0.10831505  0.75300882    -0.11620
C1347       C  0.84845868  0.13708786  0.74891118     0.02030
C1348       C  0.86886008  0.15957793  0.75138243    -0.10140
C1349       C  0.89716386  0.15463615  0.76105003     0.04520
C1350       C  0.90630869  0.12615100  0.76564490    -0.09570
H1351       H  0.84233143  0.09066169  0.75031524     0.10120
H1352       H  0.86196453  0.18160259  0.74722872     0.07650
H1353       H  0.92885512  0.12195193  0.77166332     0.07490
C1354       C  0.11575683  0.25486921  0.91355693     0.04530
C1355       C  0.09350276  0.27305187  0.90332783    -0.11620
C1356       C  0.09498384  0.28446132  0.87583049     0.02030
C1357       C  0.12222538  0.28679442  0.86249151    -0.10140
C1358       C  0.14685797  0.27219287  0.87352442     0.04520
C1359       C  0.14325031  0.25509334  0.89902214    -0.09570
H1360       H  0.07242894  0.27340732  0.91402630     0.10120
H1361       H  0.12352244  0.29751323  0.84173906     0.07650
H1362       H  0.16077154  0.24117723  0.90632588     0.07490
C1363       C  0.11968566  0.40896669  0.74305648     0.04530
C1364       C  0.10129557  0.38480439  0.74254157    -0.11620
C1365       C  0.11093757  0.35851794  0.75318164     0.02030
C1366       C  0.13937838  0.35553080  0.76267840    -0.10140
C1367       C  0.15964775  0.37762606  0.75823327     0.04520
C1368       C  0.14982678  0.40518505  0.74926817    -0.09570
H1369       H  0.07846281  0.38721970  0.73646568     0.10120
H1370       H  0.14660218  0.33470417  0.77074236     0.07650
H1371       H  0.16499974  0.42303658  0.74745326     0.07490
C1372       C  0.99818476  0.36565232  0.59986480     0.04530
C1373       C  0.00336685  0.39586624  0.60495021    -0.11620
C1374       C  0.01217640  0.40516098  0.63333576     0.02030
C1375       C  0.01891883  0.38392690  0.65364385    -0.10140
C1376       C  0.00722156  0.35658115  0.65082673     0.04520
C1377       C  0.99691329  0.34737131  0.62395081    -0.09570
H1378       H  0.00074602  0.41132940  0.58765491     0.10120
H1379       H  0.02880162  0.39016014  0.67416881     0.07650
H1380       H  0.98988086  0.32512599  0.62122133     0.07490
C1381       C  0.27591580  0.29742669  0.75488644     0.03690
C1382       C  0.29458612  0.27307359  0.75633442     0.03690
C1383       C  0.29352689  0.25455059  0.78082760     0.03690
C1384       C  0.27144966  0.25852048  0.80229794     0.03690
C1385       C  0.25054480  0.28119470  0.79937485     0.03690
C1386       C  0.25347771  0.30110660  0.77600726     0.03690
O1387       O  0.28192266  0.99486791  0.69733917    -0.86940
C1388       C  0.26478120  0.94004445  0.76349427     0.89090
Mg1389     Mg  0.31185884  0.02930930  0.70230885     1.58150
O1390       O  0.21183407  0.99199142  0.74687211    -0.86670
O1391       O  0.23673658  0.98748642  0.68394578    -0.74000
C1392       C  0.27560621  0.08942605  0.82735196     0.94140
O1393       O  0.32760069  0.97329864  0.74653513    -0.73820
O1394       O  0.29676835  0.08863037  0.80965865    -0.81330
Mg1395     Mg  0.29801654  0.95376048  0.71113477     1.57960
C1396       C  0.17187036  0.03006979  0.81861437     0.94060
O1397       O  0.27360369  0.93048148  0.67564593    -0.79590
H1398       H  0.18113788  0.00822105  0.72054787    -0.04930
C1399       C  0.26407967  0.00767976  0.81453787     0.89000
O1400       O  0.27378926  0.06098601  0.71087754    -0.74100
O1401       O  0.26220042  0.95246087  0.74000177    -0.86860
O1402       O  0.17224448  0.00954243  0.80027911    -0.79670
C1403       C  0.18025959  0.92544768  0.76260417     0.94170
C1404       C  0.25017530  0.91608766  0.67330527     0.94030
Mg1405     Mg  0.22774191  0.05419868  0.78643346     1.57950
O1406       O  0.25257579  0.07462335  0.82357821    -0.79590
O1407       O  0.19853433  0.03704896  0.74923962    -0.73830
O1408       O  0.20364752  0.92279240  0.74864177    -0.79670
O1409       O  0.33406674  0.95600654  0.67906756    -0.81390
O1410       O  0.32535269  0.08648487  0.74705675    -0.79700
C1411       C  0.19647653  0.01202440  0.73804373     0.88460
O1412       O  0.26359453  0.05748163  0.75706521    -0.86850
O1413       O  0.24286529  0.01234048  0.79854384    -0.86950
O1414       O  0.28877988  0.01944416  0.81007669    -0.74010
Mg1415     Mg  0.22064729  0.95654210  0.71889285     1.57970
O1416       O  0.17650538  0.94654402  0.77975560    -0.81380
H1417       H  0.26535195  0.01175854  0.66101018    -0.05110
O1418       O  0.31521436  0.01876289  0.74716953    -0.86650
H1419       H  0.34685707  0.00320472  0.77275925    -0.04930
H1420       H  0.24266091  0.08502721  0.73096638    -0.05110
C1421       C  0.33070041  0.99886050  0.75610875     0.88440
C1422       C  0.26178676  0.99840808  0.67980234     0.89030
C1423       C  0.25938927  0.06866421  0.73313548     0.89070
H1424       H  0.26170320  0.99290554  0.83244368    -0.05090
O1425       O  0.24845123  0.94644427  0.78480050    -0.74120
Mg1426     Mg  0.30569299  0.05268716  0.77694616     1.58000
H1427       H  0.28120594  0.92340750  0.76596872    -0.05110
C1428       C  0.35227487  0.97628847  0.67592854     0.94060
O1429       O  0.34338460  0.06680652  0.70677008    -0.81340
C1430       C  0.34127665  0.08771956  0.72454130     0.94120
O1431       O  0.22877334  0.91953650  0.69003222    -0.81330
Mg1432     Mg  0.21094841  0.97958289  0.79078196     1.58180
O1433       O  0.35076544  0.99979264  0.69044891    -0.79660
O1434       O  0.19130515  0.04958111  0.81852077    -0.81360
C1435       C  0.25263621  0.88177207  0.60020557     0.04530
C1436       C  0.25594745  0.90164094  0.62286628    -0.11620
C1437       C  0.24818502  0.89450936  0.65073711     0.02030
C1438       C  0.23984555  0.86659666  0.65734980    -0.10140
C1439       C  0.24106920  0.84474616  0.63637795     0.04520
C1440       C  0.24637107  0.85238186  0.60696205    -0.09570
H1441       H  0.26249721  0.92372328  0.61838773     0.10120
H1442       H  0.23485099  0.86129528  0.67966196     0.07650
H1443       H  0.24568970  0.83611435  0.59004875     0.07490
C1444       C  0.37231503  0.98991460  0.60143244     0.04530
C1445       C  0.36096964  0.97335852  0.62412868    -0.11620
C1446       C  0.37289264  0.97519551  0.65183942     0.02030
C1447       C  0.39972180  0.98844247  0.65576152    -0.10140
C1448       C  0.41053657  0.00778707  0.63505362     0.04520
C1449       C  0.39705624  0.00805821  0.60710250    -0.09570
H1450       H  0.34022272  0.96229417  0.62116370     0.10120
H1451       H  0.40922322  0.98787119  0.67732041     0.07650
H1452       H  0.40441937  0.02312019  0.59084857     0.07490
C1453       C  0.10790523  0.88948740  0.77055615     0.04530
C1454       C  0.11610490  0.85972790  0.76802621    -0.11620
C1455       C  0.14522436  0.85245523  0.75921454     0.02030
C1456       C  0.16521906  0.87492442  0.75438120    -0.10140
C1457       C  0.15784656  0.90320887  0.75977490     0.04520
C1458       C  0.12898840  0.91033744  0.76335672    -0.09570
H1459       H  0.10073652  0.84282118  0.77333219     0.10120
H1460       H  0.18735405  0.87046173  0.74742469     0.07650
H1461       H  0.12354780  0.93300422  0.76155498     0.07490
C1462       C  0.26284140  0.11728189  0.90293192     0.04530
C1463       C  0.26472506  0.14734994  0.89837878    -0.11620
C1464       C  0.27263721  0.15781083  0.87089517     0.02030
C1465       C  0.27969963  0.13837672  0.84859675    -0.10140
C1466       C  0.27623996  0.10881160  0.85248732     0.04520
C1467       C  0.26732416  0.09849212  0.87933323    -0.09570
H1468       H  0.25959652  0.16238595  0.91565839     0.10120
H1469       H  0.28471955  0.14650506  0.82721515     0.07650
H1470       H  0.26336281  0.07552274  0.88168843     0.07490
C1471       C  0.14109768  0.03046278  0.89377879     0.04530
C1472       C  0.11264616  0.01933812  0.88907469    -0.11620
C1473       C  0.10312847  0.01369482  0.86049783     0.02030
C1474       C  0.12304135  0.01645685  0.83756906    -0.10140
C1475       C  0.15007455  0.02954629  0.84186712     0.04520
C1476       C  0.15809271  0.03822391  0.86972051    -0.09570
H1477       H  0.09834803  0.01492263  0.90712740     0.10120
H1478       H  0.11669739  0.00984385  0.81584849     0.07650
H1479       H  0.17936273  0.04810667  0.87307509     0.07490
C1480       C  0.36553848  0.15922892  0.74710292     0.04530
C1481       C  0.34846977  0.13968471  0.73079415    -0.11620
C1482       C  0.35990511  0.11332107  0.72180189     0.02030
C1483       C  0.39004693  0.10957758  0.72162948    -0.10140
C1484       C  0.40841058  0.13009070  0.73482397     0.04520
C1485       C  0.39607508  0.15436486  0.74880424    -0.09570
H1486       H  0.32518516  0.14297438  0.72812826     0.10120
H1487       H  0.39902708  0.08895544  0.71491330     0.07650
H1488       H  0.40993774  0.16815471  0.76196458     0.07490
C1489       C  0.53032719  0.05299202  0.75100918     0.03690
C1490       C  0.54915850  0.02878277  0.74717501     0.03690
C1491       C  0.54828195  0.01235678  0.72088680     0.03690
C1492       C  0.52537756  0.01781459  0.70019832     0.03690
C1493       C  0.50604295  0.04199247  0.70395712     0.03690
C1494       C  0.50904923  0.05983693  0.72935051     0.03690
O1495       O  0.49715253  0.74263339  0.80576013    -0.86940
C1496       C  0.56550294  0.77026307  0.75758087     0.89090
Mg1497     Mg  0.46913592  0.70865441  0.79132279     1.58150
O1498       O  0.50709113  0.81951966  0.76596396    -0.86670
O1499       O  0.49842814  0.78598866  0.82466668    -0.74000
C1500       C  0.42230773  0.75934945  0.67100903     0.94140
O1501       O  0.53515540  0.70612271  0.75955353    -0.73820
O1502       O  0.42252223  0.73633316  0.68566356    -0.81330
Mg1503     Mg  0.54232368  0.73257430  0.80183272     1.57960
C1504       C  0.48091275  0.85444928  0.68634975     0.94060
O1505       O  0.55172150  0.75504951  0.84451234    -0.79590
H1506       H  0.48267385  0.84641658  0.78973725    -0.04930
C1507       C  0.50584705  0.77010737  0.69246920     0.89000
O1508       O  0.43303134  0.74236853  0.78187854    -0.74100
O1509       O  0.54738756  0.77060363  0.77720820    -0.86860
O1510       O  0.49872864  0.85695152  0.70749287    -0.79670
C1511       C  0.57676806  0.85239318  0.76276636     0.94170
C1512       C  0.57048084  0.77488457  0.84774558     0.94030
Mg1513     Mg  0.45326786  0.79924821  0.71562380     1.57950
O1514       O  0.44274699  0.77742899  0.67331429    -0.79590
O1515       O  0.46100272  0.82696018  0.75642279    -0.73830
O1516       O  0.57354123  0.83374089  0.78229557    -0.79670
O1517       O  0.53621408  0.69440182  0.82934895    -0.81390
O1518       O  0.42097750  0.69568945  0.73741233    -0.79700
C1519       C  0.48379904  0.83177514  0.77147320     0.88460
O1520       O  0.44777977  0.76097360  0.74139867    -0.86850
O1521       O  0.49818813  0.78786058  0.71095656    -0.86950
O1522       O  0.49394938  0.74534085  0.69085828    -0.74010
Mg1523     Mg  0.53587811  0.80892413  0.80046582     1.57970
O1524       O  0.55952376  0.85435472  0.74114711    -0.81380
H1525       H  0.47014929  0.75474375  0.83753633    -0.05110
O1526       O  0.48874462  0.71195691  0.74964921    -0.86650
H1527       H  0.51487196  0.68778257  0.72465305    -0.04930
H1528       H  0.41119118  0.77434906  0.76089278    -0.05110
C1529       C  0.51278450  0.70132180  0.74372639     0.88440
C1530       C  0.48783165  0.76061577  0.82329425     0.89030
C1531       C  0.42983256  0.76007467  0.76120898     0.89070
H1532       H  0.52292941  0.77574562  0.67737759    -0.05090
O1533       O  0.56242027  0.78625660  0.73566468    -0.74120
Mg1534     Mg  0.45747632  0.72280589  0.71698700     1.58000
H1535       H  0.58403325  0.75572864  0.75886836    -0.05110
C1536       C  0.51847607  0.67383958  0.82562173     0.94060
O1537       O  0.44068479  0.67275014  0.77470214    -0.81340
C1538       C  0.42224614  0.67403475  0.75418573     0.94120
O1539       O  0.56877059  0.79803618  0.83369657    -0.81330
Mg1540     Mg  0.52814321  0.82064373  0.72450966     1.58180
O1541       O  0.50109912  0.67331248  0.80411863    -0.79660
O1542       O  0.46087984  0.83571596  0.68632364    -0.81360
C1543       C  0.52096461  0.63753826  0.89797743     0.04530
C1544       C  0.50909582  0.60965798  0.89101372    -0.11620
C1545       C  0.50073711  0.60349146  0.86166397     0.02030
C1546       C  0.49998496  0.62680146  0.84245590    -0.10140
C1547       C  0.51683584  0.65113675  0.84750786     0.04520
C1548       C  0.52895057  0.65541814  0.87488079    -0.09570
H1549       H  0.50614221  0.59373135  0.90777387     0.10120
H1550       H  0.48847341  0.62478672  0.82196715     0.07650
H1551       H  0.54114649  0.67508292  0.87924624     0.07490
C1552       C  0.38428435  0.75971342  0.60055413     0.04530
C1553       C  0.40442149  0.76862562  0.62182195    -0.11620
C1554       C  0.39852935  0.76421985  0.65053837     0.02030
C1555       C  0.37032133  0.75815326  0.65888353    -0.10140
C1556       C  0.34979386  0.74673185  0.63906661     0.04520
C1557       C  0.35689604  0.74780444  0.60907368    -0.09570
H1558       H  0.42629246  0.77547915  0.61589626     0.10120
H1559       H  0.36565301  0.75992004  0.68176842     0.07650
H1560       H  0.34239434  0.73850685  0.59295565     0.07490
C1561       C  0.48614037  0.87375101  0.60701483     0.04530
C1562       C  0.49494663  0.90316317  0.60906060    -0.11620
C1563       C  0.49912206  0.91602142  0.63674600     0.02030
C1564       C  0.49633467  0.89911663  0.66165560    -0.10140
C1565       C  0.48494136  0.87153506  0.66001295     0.04520
C1566       C  0.47933599  0.85913539  0.63279845    -0.09570
H1567       H  0.49850668  0.91573116  0.58970737     0.10120
H1568       H  0.50079052  0.90846498  0.68283030     0.07650
H1569       H  0.47099708  0.83722257  0.63168016     0.07490
C1570       C  0.61611221  0.75316666  0.91139639     0.04530
C1571       C  0.59242567  0.75571960  0.89226874    -0.11620
C1572       C  0.59561018  0.77020586  0.86648850     0.02030
C1573       C  0.62332382  0.77834142  0.85734913    -0.10140
C1574       C  0.64833720  0.77026509  0.87305673     0.04520
C1575       C  0.64476202  0.75915515  0.90142138    -0.09570
H1576       H  0.57063665  0.74939938  0.89903498     0.10120
H1577       H  0.62563091  0.78865470  0.83644168     0.07650
H1578       H  0.66354443  0.75518817  0.91518544     0.07490
C1579       C  0.39105396  0.59846008  0.75236837     0.04530
C1580       C  0.41064537  0.62161405  0.75555514    -0.11620
C1581       C  0.40188377  0.64984318  0.74970755     0.02030
C1582       C  0.37351578  0.65487632  0.74003024    -0.10140
C1583       C  0.35254595  0.63263743  0.73989808     0.04520
C1584       C  0.36143282  0.60403693  0.74559109    -0.09570
H1585       H  0.43306566  0.61747829  0.76210661     0.10120
H1586       H  0.36672835  0.67691000  0.73580988     0.07650
H1587       H  0.34559245  0.58663216  0.74536201     0.07490
C1588       C  0.65382798  0.87711794  0.75772873     0.04530
C1589       C  0.64870424  0.90445112  0.74429781    -0.11620
C1590       C  0.61964055  0.91567635  0.74328415     0.02030
C1591       C  0.59752511  0.90024648  0.75722923    -0.10140
C1592       C  0.60167341  0.87186250  0.76465840     0.04520
C1593       C  0.62974629  0.86111307  0.76751775    -0.09570
H1594       H  0.66639341  0.91574772  0.73375449     0.10120
H1595       H  0.57538233  0.90862389  0.75810689     0.07650
H1596       H  0.63262140  0.83910347  0.77496769     0.07490
C1597       C  0.24837187  0.72146238  0.70880074     0.03690
C1598       C  0.22762472  0.74466141  0.70911149     0.03690
C1599       C  0.20656067  0.74665309  0.73182188     0.03690
C1600       C  0.20631295  0.72597442  0.75450565     0.03690
C1601       C  0.22670046  0.70284899  0.75424359     0.03690
C1602       C  0.24789593  0.70052824  0.73166295     0.03690
O1603       O  0.28627364  0.79866789  0.02692758    -0.86940
C1604       C  0.28583330  0.71884105  0.06220618     0.89090
Mg1605     Mg  0.24618356  0.82205998  0.01900549     1.58150
O1606       O  0.31035799  0.72142024  0.99033334    -0.86670
O1607       O  0.32808743  0.78464161  0.00858476    -0.74000
C1608       C  0.17374991  0.72986399  0.93788244     0.94140
O1609       O  0.24048798  0.76983765  0.07177825    -0.73820
O1610       O  0.16781727  0.74840921  0.95764495    -0.81330
Mg1611     Mg  0.28969841  0.78033501  0.06964604     1.57960
C1612       C  0.27504980  0.66945575  0.93033043     0.94060
O1613       O  0.33746601  0.79373424  0.07328705    -0.79590
H1614       H  0.33619036  0.74164275  0.96225693    -0.04930
C1615       C  0.22317714  0.70140011  0.00177933     0.89000
O1616       O  0.24743038  0.81309108  0.97051962    -0.74100
O1617       O  0.29780819  0.73955009  0.05048265    -0.86860
O1618       O  0.28777320  0.66462900  0.95439315    -0.79670
C1619       C  0.34262146  0.66565481  0.03188659     0.94170
C1620       C  0.35912811  0.77722037  0.07706420     0.94030
Mg1621     Mg  0.24530166  0.73071593  0.94782892     1.57950
O1622       O  0.19881566  0.71837584  0.93563057    -0.79590
O1623       O  0.29330067  0.74249517  0.95138557    -0.73830
O1624       O  0.34867718  0.69152546  0.03953789    -0.79670
O1625       O  0.28215434  0.82164449  0.09119748    -0.81390
O1626       O  0.17640350  0.81192716  0.98716856    -0.79700
C1627       C  0.31427793  0.73469077  0.96753837     0.88460
O1628       O  0.23172452  0.76906708  0.96837682    -0.86850
O1629       O  0.24520381  0.70863766  0.98836324    -0.86950
O1630       O  0.20338663  0.71940430  0.00805707    -0.74010
Mg1631     Mg  0.33612886  0.73774787  0.02467139     1.57970
O1632       O  0.32125455  0.65962215  0.01519074    -0.81380
H1633       H  0.31032470  0.82430457  0.00166409    -0.05110
O1634       O  0.22200118  0.78292270  0.03005773    -0.86650
H1635       H  0.19723998  0.76715121  0.06186431    -0.04930
H1636       H  0.24030063  0.79170652  0.93268269    -0.05110
C1637       C  0.21885751  0.77336011  0.05478101     0.88440
C1638       C  0.30813974  0.80353969  0.01205440     0.89030
C1639       C  0.23939152  0.79126533  0.95607826     0.89070
H1640       H  0.22129463  0.67941766  0.00936939    -0.05090
O1641       O  0.27696454  0.69732631  0.04757949    -0.74120
Mg1642     Mg  0.19429241  0.76616247  0.99589853     1.58000
H1643       H  0.28180674  0.71959090  0.08526085    -0.05110
C1644       C  0.26345507  0.84103598  0.08665981     0.94060
O1645       O  0.20303180  0.84473829  0.01126471    -0.81340
C1646       C  0.17980201  0.83725972  0.99776167     0.94120
O1647       O  0.36256722  0.75471083  0.06167294    -0.81330
Mg1648     Mg  0.28281952  0.68453288  0.00013229     1.58180
O1649       O  0.24681211  0.84096780  0.06451191    -0.79660
O1650       O  0.25915700  0.69141842  0.92650565    -0.81360
C1651       C  0.10283486  0.86826535  0.99365690     0.04530
C1652       C  0.10845552  0.89798620  0.99773678    -0.11620
C1653       C  0.13751472  0.90765114  0.00098007     0.02030
C1654       C  0.16043925  0.88743582  0.00097603    -0.10140
C1655       C  0.15531693  0.85814506  0.99589766     0.04520
C1656       C  0.12640310  0.84874097  0.99198137    -0.09570
H1657       H  0.09054450  0.91325521  0.99856902     0.10120
H1658       H  0.18269295  0.89484179  0.00449994     0.07650
H1659       H  0.12194754  0.82589224  0.98912908     0.07490
C1660       C  0.27987617  0.60014685  0.88760682     0.04530
C1661       C  0.26894959  0.60904899  0.86023373    -0.11620
C1662       C  0.26216732  0.63855285  0.85592886     0.02030
C1663       C  0.26323359  0.65683608  0.88005683    -0.10140
C1664       C  0.27687156  0.64909541  0.90582946     0.04520
C1665       C  0.28716679  0.62105906  0.90875632    -0.09570
H1666       H  0.26457275  0.59318540  0.84348109     0.10120
H1667       H  0.25302670  0.67786723  0.87853502     0.07650
H1668       H  0.29562349  0.61423423  0.92961742     0.07490
C1669       C  0.23782388  0.91000693  0.11940370     0.04530
C1670       C  0.25155287  0.89100018  0.09987819    -0.11620
C1671       C  0.26023948  0.86379532  0.10822045     0.02030
C1672       C  0.26246894  0.85736213  0.13720893    -0.10140
C1673       C  0.25089578  0.87600719  0.15807740     0.04520
C1674       C  0.23763295  0.90242531  0.14929013    -0.09570
H1675       H  0.25400594  0.89640596  0.07723391     0.10120
H1676       H  0.27063605  0.83627302  0.14351231     0.07650
H1677       H  0.22667029  0.91596245  0.16501717     0.07490
C1678       C  0.10583742  0.74445535  0.89900250     0.04530
C1679       C  0.11529567  0.74433491  0.86989448    -0.11620
C1680       C  0.14295480  0.73258478  0.86293968     0.02030
C1681       C  0.16162813  0.72370535  0.88556553    -0.10140
C1682       C  0.15228317  0.72476844  0.91440125     0.04520
C1683       C  0.12316666  0.73049376  0.91988107    -0.09570
H1684       H  0.10241502  0.75475552  0.85324421     0.10120
H1685       H  0.18426562  0.71863505  0.88086443     0.07650
H1686       H  0.11571142  0.72864320  0.94203302     0.07490
C1687       C  0.41369489  0.74875037  0.12369409     0.04530
C1688       C  0.40505070  0.76801303  0.10193106    -0.11620
C1689       C  0.37772397  0.78077199  0.10284509     0.02030
C1690       C  0.36362895  0.78326154  0.12942088    -0.10140
C1691       C  0.37295117  0.76693649  0.15334340     0.04520
C1692       C  0.39787497  0.74864604  0.15015766    -0.09570
H1693       H  0.41614033  0.76758338  0.08121640     0.10120
H1694       H  0.34285881  0.79451898  0.13032308     0.07650
H1695       H  0.40358994  0.73350429  0.16703523     0.07490
C1696       C  0.36662719  0.59327186  0.01971199     0.04530
C1697       C  0.39673647  0.59850160  0.01419712    -0.11620
C1698       C  0.40991161  0.62427848  0.02446936     0.02030
C1699       C  0.39234114  0.64624308  0.03598878    -0.10140
C1700       C  0.36258727  0.64185722  0.03920584     0.04520
C1701       C  0.35189493  0.61379786  0.03694231    -0.09570
H1702       H  0.40965037  0.58391291  0.00121549     0.10120
H1703       H  0.40128198  0.66776507  0.03888614     0.07650
H1704       H  0.33001965  0.60999413  0.04472481     0.07490
C1705       C  0.52281315  0.74068990  0.05485505     0.03690
C1706       C  0.54616950  0.74491242  0.03489195     0.03690
C1707       C  0.54971759  0.72503430  0.01134615     0.03690
C1708       C  0.53079213  0.70074406  0.00814530     0.03690
C1709       C  0.50875211  0.69561082  0.02924299     0.03690
C1710       C  0.50504026  0.71517717  0.05320197     0.03690
C1711       C  0.95727323  0.76974159  0.00147502     0.03690
C1712       C  0.96141522  0.74871977  0.97929484     0.03690
C1713       C  0.98558159  0.75105234  0.96028119     0.03690
C1714       C  0.00425556  0.77574812  0.96177779     0.03690
C1715       C  0.00004977  0.79703592  0.98399495     0.03690
C1716       C  0.97668568  0.79370337  0.00400913     0.03690
O1717       O  0.95281222  0.75055638  0.24424310    -0.86940
C1718       C  0.02220457  0.69651428  0.25183937     0.89090
Mg1719     Mg  0.95633420  0.78722690  0.21672448     1.58150
O1720       O  0.00140754  0.74029706  0.30977219    -0.86670
O1721       O  0.93828540  0.73433730  0.28587736    -0.74000
C1722       C  0.07408353  0.85291574  0.26447241     0.94140
O1723       O  0.00227069  0.73604676  0.19588871    -0.73820
O1724       O  0.05692895  0.85310962  0.24268069    -0.81330
Mg1725     Mg  0.96715251  0.71209246  0.22253511     1.57960
C1726       C  0.07148442  0.77686308  0.35073314     0.94060
O1727       O  0.93290467  0.68522046  0.24413648    -0.79590
H1728       H  0.97290279  0.75106757  0.34073589    -0.04930
C1729       C  0.06935242  0.76960561  0.26316056     0.89000
O1730       O  0.96077789  0.81748147  0.25648119    -0.74100
O1731       O  0.99751753  0.70643365  0.25639069    -0.86860
O1732       O  0.05050505  0.75930608  0.34888742    -0.79670
C1733       C  0.02552685  0.67334785  0.33343229     0.94170
C1734       C  0.93081901  0.66694904  0.26430966     0.94030
Mg1735     Mg  0.03607369  0.80801482  0.30375753     1.57950
O1736       O  0.07156966  0.83486912  0.28468571    -0.79590
O1737       O  0.99966366  0.78375697  0.32830243    -0.73830
O1738       O  0.01149570  0.67219018  0.30983622    -0.79670
O1739       O  0.93237085  0.71868192  0.18938519    -0.81390
O1740       O  0.99593113  0.84788137  0.20975419    -0.79700
C1741       C  0.99050443  0.75784985  0.32684468     0.88460
O1742       O  0.00694712  0.81452307  0.26839463    -0.86850
O1743       O  0.05058726  0.76933217  0.28218786    -0.86950
O1744       O  0.06585344  0.78465340  0.24060809    -0.74010
Mg1745     Mg  0.97651071  0.70390009  0.29747650     1.57970
O1746       O  0.04141667  0.69495617  0.33933153    -0.81380
H1747       H  0.91477871  0.76284362  0.26177805    -0.05110
O1748       O  0.00225091  0.77939959  0.21454841    -0.86650
H1749       H  0.02887870  0.76834259  0.18204358    -0.04930
H1750       H  0.97905069  0.83993151  0.28994332    -0.05110
C1751       C  0.01196014  0.76176788  0.19690675     0.88440
C1752       C  0.93439232  0.74991373  0.26366405     0.89030
C1753       C  0.98234676  0.82475739  0.27240755     0.89070
H1754       H  0.08889196  0.75659185  0.26560947    -0.05090
O1755       O  0.04375783  0.70294340  0.26823326    -0.74120
Mg1756     Mg  0.02881208  0.81553136  0.22741083     1.58000
H1757       H  0.02553116  0.68212950  0.23360926    -0.05110
C1758       C  0.93053453  0.74054786  0.17335376     0.94060
O1759       O  0.96238397  0.82292275  0.18592426    -0.81340
C1760       C  0.98058975  0.84341607  0.18713853     0.94120
O1761       O  0.94931750  0.66565538  0.28470436    -0.81330
Mg1762     Mg  0.04686553  0.73228936  0.30901322     1.58180
O1763       O  0.94864675  0.76109820  0.17559049    -0.79660
O1764       O  0.07040412  0.80049860  0.33744864    -0.81360
C1765       C  0.00205718  0.60240888  0.36509454     0.04530
C1766       C  0.00819899  0.60737932  0.39522236    -0.11620
C1767       C  0.02085532  0.63440307  0.40405930     0.02030
C1768       C  0.03168425  0.65278622  0.38259110    -0.10140
C1769       C  0.02182753  0.64993349  0.35429451     0.04520
C1770       C  0.00439161  0.62643784  0.34696561    -0.09570
H1771       H  0.00267217  0.59148476  0.41133281     0.10120
H1772       H  0.04362226  0.67212793  0.38883752     0.07650
H1773       H  0.99341042  0.62634560  0.32615671     0.07490
C1774       C  0.98451898  0.86445355  0.10838804     0.04530
C1775       C  0.99632807  0.89277711  0.11062181    -0.11620
C1776       C  0.00322128  0.90409462  0.13835383     0.02030
C1777       C  0.00164051  0.88585615  0.16244520    -0.10140
C1778       C  0.98547286  0.86061979  0.16101388     0.04520
C1779       C  0.97615425  0.85045521  0.13399030    -0.09570
H1780       H  0.99994893  0.90570088  0.09153110     0.10120
H1781       H  0.00934861  0.89350497  0.18339724     0.07650
H1782       H  0.96424944  0.83022889  0.13266802     0.07490
C1783       C  0.88522207  0.59964774  0.26770440     0.04530
C1784       C  0.85722116  0.61054398  0.25956777    -0.11620
C1785       C  0.85407731  0.64053612  0.25334211     0.02030
C1786       C  0.87960692  0.65720404  0.25214362    -0.10140
C1787       C  0.90582941  0.64743632  0.26364331     0.04520
C1788       C  0.90834116  0.61900297  0.27242632    -0.09570
H1789       H  0.83877073  0.59599950  0.25782113     0.10120
H1790       H  0.87882421  0.67888529  0.24344698     0.07650
H1791       H  0.92948026  0.61106173  0.27961964     0.07490
C1792       C  0.11929356  0.91506064  0.24258914     0.04530
C1793       C  0.09587948  0.90053167  0.25586547    -0.11620
C1794       C  0.09899031  0.87258734  0.26535762     0.02030
C1795       C  0.12662773  0.86150170  0.26978377    -0.10140
C1796       C  0.15123352  0.87550764  0.25856652     0.04520
C1797       C  0.14764629  0.90249559  0.24421949    -0.09570
H1798       H  0.07392831  0.90937033  0.25534056     0.10120
H1799       H  0.12867016  0.84010715  0.27906964     0.07650
H1800       H  0.16593020  0.91246619  0.23332318     0.07490
C1801       C  0.88994090  0.75094817  0.10353569     0.04530
C1802       C  0.86054658  0.74815823  0.11256854    -0.11620
C1803       C  0.85458761  0.74300065  0.14216649     0.02030
C1804       C  0.87791870  0.73887425  0.16151272    -0.10140
C1805       C  0.90668170  0.74263375  0.15254905     0.04520
C1806       C  0.91244203  0.75008530  0.12421402    -0.09570
H1807       H  0.84283187  0.74992659  0.09703747     0.10120
H1808       H  0.87356214  0.73415646  0.18407421     0.07650
H1809       H  0.93498055  0.75345075  0.11775474     0.07490
C1810       C  0.11701597  0.74978227  0.41156917     0.04530
C1811       C  0.09348799  0.75427224  0.39281732    -0.11620
C1812       C  0.09724257  0.76898632  0.36731287     0.02030
C1813       C  0.12530050  0.77420076  0.35703508    -0.10140
C1814       C  0.14987463  0.76455926  0.37257945     0.04520
C1815       C  0.14591846  0.75378801  0.40113368    -0.09570
H1816       H  0.07138529  0.74949713  0.39989358     0.10120
H1817       H  0.12798908  0.78388853  0.33587655     0.07650
H1818       H  0.16459138  0.74859425  0.41461795     0.07490
C1819       C  0.29066628  0.75334180  0.26940603     0.03690
C1820       C  0.27027091  0.75283216  0.29257044     0.03690
C1821       C  0.24867547  0.77472892  0.29491582     0.03690
C1822       C  0.24791718  0.79728536  0.27421008     0.03690
C1823       C  0.26872816  0.79814246  0.25136636     0.03690
C1824       C  0.29056048  0.77641341  0.24918105     0.03690
C1825       C  0.17875295  0.74811960  0.33022550     0.25000
C1826       C  0.17799379  0.76385589  0.35639063    -0.23110
C1827       C  0.20126885  0.78277334  0.36284340     0.19900
C1828       C  0.22441511  0.78633099  0.34304077     0.24940
C1829       C  0.22434392  0.77137297  0.31638146    -0.23050
C1830       C  0.20126250  0.75216970  0.31036969     0.19840
F1831       F  0.19990703  0.73783701  0.28473739    -0.13010
F1832       F  0.15659562  0.72977233  0.32316392    -0.15380
F1833       F  0.24653320  0.80484528  0.34953652    -0.15380
F1834       F  0.20083526  0.79880898  0.38751098    -0.13010
C1835       C  0.20333617  0.86681841  0.27470727     0.25000
C1836       C  0.17850198  0.85805655  0.25888388    -0.23110
C1837       C  0.17665514  0.82910855  0.24934005     0.19900
C1838       C  0.19750328  0.80892153  0.25765441     0.24940
C1839       C  0.22262291  0.81758197  0.27288788    -0.23050
C1840       C  0.22561958  0.84680824  0.28106649     0.19840
F1841       F  0.25005760  0.85581768  0.29524466    -0.13010
F1842       F  0.20551194  0.89432006  0.28478751    -0.15380
F1843       F  0.19395882  0.78105368  0.24913310    -0.15380
F1844       F  0.15358169  0.82002111  0.23299330    -0.13010
C1845       C  0.91237699  0.78206036  0.03155278     0.25000
C1846       C  0.93596236  0.76353437  0.02518661    -0.23110
C1847       C  0.94033730  0.73906819  0.04250027     0.19900
C1848       C  0.92112929  0.73242929  0.06458051     0.24940
C1849       C  0.89953259  0.75228875  0.07300991    -0.23050
C1850       C  0.89468779  0.77687222  0.05588055     0.19840
F1851       F  0.87447390  0.79676736  0.06388856    -0.13010
F1852       F  0.90769274  0.80597883  0.01534820    -0.15380
F1853       F  0.92623666  0.70835214  0.08053577    -0.15380
F1854       F  0.96494267  0.72298992  0.03998018    -0.13010
C1855       C  0.96941115  0.84194491  0.02956231     0.25000
C1856       C  0.97600219  0.81224883  0.03065596    -0.23110
C1857       C  0.98542250  0.80041770  0.05695744     0.19900
C1858       C  0.98967638  0.81788258  0.08116567     0.24940
C1859       C  0.98227130  0.84751650  0.08075770    -0.23050
C1860       C  0.97208497  0.85940856  0.05454969     0.19840
F1861       F  0.96438482  0.88765239  0.05313713    -0.13010
F1862       F  0.96049306  0.85395174  0.00429191    -0.15380
F1863       F  0.00231989  0.80575799  0.10484815    -0.15380
F1864       F  0.99346694  0.77224804  0.05849691    -0.13010
C1865       C  0.46757757  0.67318824  0.00045563     0.25000
C1866       C  0.48735149  0.67163667  0.02396982    -0.23110
C1867       C  0.48485765  0.64857233  0.04343544     0.19900
C1868       C  0.46124031  0.62930074  0.04114421     0.24940
C1869       C  0.44047863  0.63235041  0.01881076    -0.23050
C1870       C  0.44513250  0.65306378  0.99732611     0.19840
F1871       F  0.42472023  0.65713106  0.97625950    -0.13010
F1872       F  0.46662151  0.69697194  0.98351289    -0.15380
F1873       F  0.45673476  0.60982798  0.06251648    -0.15380
F1874       F  0.50370694  0.64634711  0.06609350    -0.13010
C1875       C  0.34191477  0.78018983  0.22897756     0.25000
C1876       C  0.31175540  0.77553483  0.22427677    -0.23110
C1877       C  0.30262531  0.76572064  0.19681149     0.19900
C1878       C  0.32289858  0.76089773  0.17468562     0.24940
C1879       C  0.35297256  0.76648307  0.17897291    -0.23050
C1880       C  0.36229098  0.77591272  0.20651361     0.19840
F1881       F  0.39095124  0.78188049  0.21139400    -0.13010
F1882       F  0.35159977  0.78893400  0.25542528    -0.15380
F1883       F  0.31301904  0.75084099  0.14872645    -0.15380
F1884       F  0.27410168  0.75962125  0.19156742    -0.13010
C1885       C  0.46368247  0.72491875  0.12394403     0.25000
C1886       C  0.43469911  0.72588389  0.11382663    -0.23110
C1887       C  0.42872710  0.71312923  0.08664800     0.19900
C1888       C  0.45117539  0.70984944  0.06656116     0.24940
C1889       C  0.48070724  0.71141715  0.07530452    -0.23050
C1890       C  0.48625102  0.71545616  0.10534139     0.19840
F1891       F  0.51407237  0.71449311  0.11561080    -0.13010
F1892       F  0.47054050  0.73585166  0.15042830    -0.15380
F1893       F  0.44350345  0.71051000  0.03828148    -0.15380
F1894       F  0.40068124  0.71118113  0.07706879    -0.13010
C1895       C  0.02847301  0.77182030  0.91233451     0.25000
C1896       C  0.03071682  0.77650441  0.94259959    -0.23110
C1897       C  0.05874456  0.77679956  0.95506146     0.19900
C1898       C  0.08326487  0.77401724  0.93799801     0.24940
C1899       C  0.08068377  0.76178589  0.91009601    -0.23050
C1900       C  0.05305227  0.76242728  0.89657162     0.19840
F1901       F  0.04937400  0.75217710  0.86922703    -0.13010
F1902       F  0.00200987  0.77281274  0.89896624    -0.15380
F1903       F  0.10980928  0.77881195  0.95051726    -0.15380
F1904       F  0.06272602  0.77485552  0.98399665    -0.13010
C1905       C  0.27229531  0.86747830  0.20710869     0.25000
C1906       C  0.24928644  0.86299049  0.18719859    -0.23110
C1907       C  0.23288882  0.83734035  0.18905456     0.19900
C1908       C  0.24145029  0.81538862  0.20774408     0.24940
C1909       C  0.26425624  0.81972741  0.22779011    -0.23050
C1910       C  0.27920028  0.84628592  0.22780953     0.19840
F1911       F  0.30101650  0.85124230  0.24722717    -0.13010
F1912       F  0.28934657  0.89137273  0.20508594    -0.15380
F1913       F  0.22757948  0.78954099  0.20591040    -0.15380
F1914       F  0.21119735  0.83186689  0.16955752    -0.13010
C1915       C  0.06544616  0.83711048  0.01619807     0.25000
C1916       C  0.07279347  0.85614504  0.99391901    -0.23110
C1917       C  0.05377867  0.85879725  0.97004692     0.19900
C1918       C  0.02872533  0.84116194  0.96774781     0.24940
C1919       C  0.02270984  0.82028682  0.98901681    -0.23050
C1920       C  0.04114795  0.81910274  0.01361625     0.19840
F1921       F  0.03897846  0.79708680  0.03265624    -0.13010
F1922       F  0.08366634  0.83379369  0.03926685    -0.15380
F1923       F  0.01155271  0.84293660  0.94378130    -0.15380
F1924       F  0.06062803  0.87681010  0.94802317    -0.13010
C1925       C  0.19545601  0.75007252  0.80298290     0.25000
C1926       C  0.18726656  0.73045940  0.78082338    -0.23110
C1927       C  0.16197559  0.71361859  0.78492495     0.19900
C1928       C  0.14607419  0.71552284  0.81094845     0.24940
C1929       C  0.15531369  0.73425125  0.83329634    -0.23050
C1930       C  0.17966841  0.75196606  0.82866221     0.19840
F1931       F  0.18911118  0.77029570  0.84981328    -0.13010
F1932       F  0.21976444  0.76652852  0.80088996    -0.15380
F1933       F  0.12265484  0.69800604  0.81494282    -0.15380
F1934       F  0.15331293  0.69461183  0.76411638    -0.13010
C1935       C  0.22460655  0.65588658  0.78309108     0.25000
C1936       C  0.23102984  0.68563736  0.78127864    -0.23110
C1937       C  0.24715670  0.69855494  0.80361173     0.19900
C1938       C  0.26069776  0.68177236  0.82427736     0.24940
C1939       C  0.25294152  0.65251497  0.82809057    -0.23050
C1940       C  0.23442287  0.63962781  0.80712131     0.19840
F1941       F  0.22587176  0.61171982  0.80971356    -0.13010
F1942       F  0.20890936  0.64277819  0.76176147    -0.15380
F1943       F  0.28227439  0.69438581  0.84034442    -0.15380
F1944       F  0.25475416  0.72680482  0.80241830    -0.13010
C1945       C  0.30239009  0.63881645  0.71684696     0.25000
C1946       C  0.32163855  0.64212079  0.74055958    -0.23110
C1947       C  0.31474962  0.66213049  0.76223737     0.19900
C1948       C  0.29254551  0.68182510  0.75795088     0.24940
C1949       C  0.27235552  0.67877856  0.73495211    -0.23050
C1950       C  0.27718889  0.65639730  0.71464918     0.19840
F1951       F  0.25890330  0.65314374  0.69164210    -0.13010
F1952       F  0.30891443  0.62007859  0.69514222    -0.15380
F1953       F  0.29437590  0.70659433  0.77347449    -0.15380
F1954       F  0.33296743  0.66606098  0.78530343    -0.13010
C1955       C  0.61190284  0.72231983  0.95603226     0.25000
C1956       C  0.60772694  0.74887130  0.94195612    -0.23110
C1957       C  0.58627753  0.76793803  0.95247953     0.19900
C1958       C  0.56611127  0.75861307  0.97261399     0.24940
C1959       C  0.57032739  0.73262740  0.98749221    -0.23050
C1960       C  0.59394671  0.71473698  0.97953151     0.19840
F1961       F  0.59850681  0.68935831  0.99337240    -0.13010
F1962       F  0.63182813  0.70312527  0.94588992    -0.15380
F1963       F  0.54124933  0.77416149  0.97610659    -0.15380
F1964       F  0.58174879  0.79384114  0.93947598    -0.13010
C1965       C  0.29490722  0.73306519  0.64007399     0.25000
C1966       C  0.32339072  0.73219385  0.65203446    -0.23110
C1967       C  0.32607671  0.72134031  0.68037302     0.19900
C1968       C  0.30238259  0.72234750  0.69867690     0.24940
C1969       C  0.27377104  0.72216973  0.68775196    -0.23050
C1970       C  0.27042888  0.72574907  0.65738982     0.19840
F1971       F  0.24347957  0.72471164  0.64505231    -0.13010
F1972       F  0.29053551  0.74193376  0.61246738    -0.15380
F1973       F  0.30794779  0.72800677  0.72683966    -0.15380
F1974       F  0.35237767  0.71374051  0.69186793    -0.13010
C1975       C  0.51353341  0.68080492  0.93015096     0.25000
C1976       C  0.52225943  0.65151595  0.92760673    -0.23110
C1977       C  0.53416454  0.63820320  0.95237491     0.19900
C1978       C  0.53769806  0.65404892  0.97854609     0.24940
C1979       C  0.53038807  0.68370572  0.98010080    -0.23050
C1980       C  0.51885904  0.69681567  0.95527423     0.19840
F1981       F  0.51028716  0.72488515  0.95607152    -0.13010
F1982       F  0.49926031  0.69420090  0.90811390    -0.15380
F1983       F  0.54839718  0.64054325  0.00232498    -0.15380
F1984       F  0.54281944  0.61021277  0.95117828    -0.13010
C1985       C  0.60051056  0.99243414  0.72266324     0.25000
C1986       C  0.57021371  0.98793268  0.71717523    -0.23110
C1987       C  0.56104241  0.95926992  0.71241254     0.19900
C1988       C  0.58125330  0.93687257  0.71171310     0.24940
C1989       C  0.60874058  0.94049264  0.72540110    -0.23050
C1990       C  0.61904112  0.96885369  0.72910148     0.19840
F1991       F  0.64577305  0.97376044  0.74100709    -0.13010
F1992       F  0.61126038  0.01965379  0.72517417    -0.15380
F1993       F  0.57153086  0.91004170  0.70431289    -0.15380
F1994       F  0.53239223  0.95187566  0.71244817    -0.13010
C1995       C  0.53664136  0.98588361  0.65608061     0.25000
C1996       C  0.51733597  0.99522599  0.67799139    -0.23110
C1997       C  0.48990354  0.98153324  0.68018588     0.19900
C1998       C  0.48182199  0.95971911  0.66103044     0.24940
C1999       C  0.50260674  0.94739354  0.64238910    -0.23050
C2000       C  0.52978238  0.96128048  0.63917279     0.19840
F2001       F  0.55051534  0.94954471  0.62181509    -0.13010
F2002       F  0.56307980  0.99879891  0.65302271    -0.15380
F2003       F  0.45535350  0.94684708  0.66449936    -0.15380
F2004       F  0.47192878  0.98731162  0.70277871    -0.13010
C2005       C  0.46779707  0.08165103  0.75840740     0.25000
C2006       C  0.48749172  0.08366331  0.73502426    -0.23110
C2007       C  0.48387865  0.10633906  0.71516736     0.19900
C2008       C  0.45943073  0.12457864  0.71694465     0.24940
C2009       C  0.43901483  0.12114727  0.73930060    -0.23050
C2010       C  0.44439323  0.10072226  0.76091771     0.19840
F2011       F  0.42419127  0.09608270  0.78186421    -0.13010
F2012       F  0.46766513  0.05806197  0.77561759    -0.15380
F2013       F  0.45411456  0.14362232  0.69532558    -0.15380
F2014       F  0.50246894  0.10902025  0.69253381    -0.13010
C2015       C  0.14380017  0.80100707  0.73894768     0.25000
C2016       C  0.15754967  0.82260327  0.75582954    -0.23110
C2017       C  0.18698152  0.81809607  0.76426328     0.19900
C2018       C  0.20341254  0.79604775  0.75197228     0.24940
C2019       C  0.18970516  0.77386176  0.73644966    -0.23050
C2020       C  0.15950765  0.77607959  0.73048843     0.19840
F2021       F  0.14557401  0.75458070  0.71586168    -0.13010
F2022       F  0.11571396  0.80435132  0.73000493    -0.15380
F2023       F  0.23273033  0.79535135  0.75685417    -0.15380
F2024       F  0.20045418  0.83616484  0.78343911    -0.13010
C2025       C  0.46043107  0.03299355  0.63482046     0.25000
C2026       C  0.43233591  0.02952396  0.64654071    -0.23110
C2027       C  0.42767544  0.04035474  0.67474831     0.19900
C2028       C  0.45126087  0.04462660  0.69349495     0.24940
C2029       C  0.48018658  0.04548842  0.68306230    -0.23050
C2030       C  0.48377330  0.04297194  0.65258192     0.19840
F2031       F  0.51077564  0.04566289  0.64086375    -0.13010
F2032       F  0.46596263  0.02409765  0.60736418    -0.15380
F2033       F  0.44569041  0.04195150  0.72206196    -0.15380
F2034       F  0.40035185  0.04034815  0.68616607    -0.13010
C2035       C  0.21417342  0.79846010  0.64739446     0.25000
C2036       C  0.24004858  0.81492972  0.64826565    -0.23110
C2037       C  0.26169206  0.80768003  0.66881143     0.19900
C2038       C  0.25685063  0.78608001  0.68920772     0.24940
C2039       C  0.23118504  0.76935180  0.68835131    -0.23050
C2040       C  0.20997420  0.77555126  0.66698693     0.19840
F2041       F  0.18507340  0.75966693  0.66537851    -0.13010
F2042       F  0.19234826  0.80561302  0.62877243    -0.15380
F2043       F  0.27705836  0.78198968  0.71041562    -0.15380
F2044       F  0.28655948  0.82365593  0.67090213    -0.13010
C2045       C  0.24431005  0.21796748  0.82650162     0.25000
C2046       C  0.26851499  0.23683102  0.82604729    -0.23110
C2047       C  0.29160225  0.23228697  0.84579891     0.19900
C2048       C  0.29180007  0.20773840  0.86348408     0.24940
C2049       C  0.26840300  0.18812885  0.86238151    -0.23050
C2050       C  0.24399131  0.19433708  0.84501454     0.19840
F2051       F  0.22160158  0.17510625  0.84292842    -0.13010
F2052       F  0.22316348  0.21953898  0.80589905    -0.15380
F2053       F  0.31590353  0.20169986  0.87959236    -0.15380
F2054       F  0.31510888  0.25020120  0.84600906    -0.13010
C2055       C  0.30283910  0.20078622  0.77966582     0.25000
C2056       C  0.31392282  0.22905082  0.78141401    -0.23110
C2057       C  0.34427496  0.23310529  0.77771439     0.19900
C2058       C  0.36187052  0.21045203  0.76737391     0.24940
C2059       C  0.35005269  0.18254736  0.76370112    -0.23050
C2060       C  0.32122873  0.17768671  0.77351025     0.19840
F2061       F  0.30988264  0.15061486  0.77512601    -0.13010
F2062       F  0.27371400  0.19558220  0.78011840    -0.15380
F2063       F  0.38955407  0.21652410  0.75894822    -0.15380
F2064       F  0.35609417  0.25985877  0.78072034    -0.13010
C2065       C  0.19608627  0.34565067  0.73814242     0.25000
C2066       C  0.19020448  0.36769456  0.75833577    -0.23110
C2067       C  0.20683781  0.36903173  0.78402442     0.19900
C2068       C  0.22807080  0.34781049  0.78979874     0.24940
C2069       C  0.23115640  0.32400237  0.77099696    -0.23050
C2070       C  0.21390628  0.32270636  0.74582902     0.19840
F2071       F  0.21266563  0.29821594  0.72964978    -0.13010
F2072       F  0.17974765  0.34329115  0.71356095    -0.15380
F2073       F  0.24431765  0.34954908  0.81440509    -0.15380
F2074       F  0.20080180  0.38934371  0.80441781    -0.13010
C2075       C  0.17237268  0.26841798  0.82512224     0.25000
C2076       C  0.17427154  0.27282281  0.85542086    -0.23110
C2077       C  0.20154128  0.28125303  0.86705215     0.19900
C2078       C  0.22600889  0.28536602  0.84889936     0.24940
C2079       C  0.22378800  0.28143001  0.81860582    -0.23050
C2080       C  0.19646490  0.27320536  0.80706222     0.19840
F2081       F  0.19363631  0.26742859  0.77834493    -0.13010
F2082       F  0.14711648  0.25873198  0.81285380    -0.15380
F2083       F  0.25204200  0.29297241  0.86093337    -0.15380
F2084       F  0.20436078  0.28616732  0.89591449    -0.13010
C2085       C  0.92217502  0.06651370  0.74153516     0.25000
C2086       C  0.89970768  0.07318541  0.76102934    -0.23110
C2087       C  0.89327452  0.05353216  0.78322512     0.19900
C2088       C  0.91010147  0.02826308  0.78660070     0.24940
C2089       C  0.93366291  0.02238306  0.76791562    -0.23050
C2090       C  0.93905686  0.04169072  0.74504196     0.19840
F2091       F  0.96282552  0.03840229  0.72794173    -0.13010
F2092       F  0.92913623  0.08525140  0.72010729    -0.15380
F2093       F  0.90437574  0.01026600  0.80894989    -0.15380
F2094       F  0.87202480  0.05972656  0.80268467    -0.13010
C2095       C  0.99460939  0.07424098  0.82287513     0.25000
C2096       C  0.98958390  0.07406490  0.85308968    -0.23110
C2097       C  0.97647851  0.04928982  0.86504732     0.19900
C2098       C  0.96941397  0.02541534  0.84711657     0.24940
C2099       C  0.97344975  0.02680679  0.81686787    -0.23050
C2100       C  0.98418222  0.05246155  0.80505552     0.19840
F2101       F  0.98935109  0.05476594  0.77629956    -0.13010
F2102       F  0.01123112  0.09500058  0.81026153    -0.15380
F2103       F  0.95934393  0.00073328  0.85923056    -0.15380
F2104       F  0.97084256  0.04791484  0.89379544    -0.13010
C2105       C  0.05719368  0.98267726  0.86037968     0.25000
C2106       C  0.07229632  0.00795755  0.85236859    -0.23110
C2107       C  0.06074323  0.02521238  0.83029688     0.19900
C2108       C  0.03807954  0.01506638  0.81325648     0.24940
C2109       C  0.02248734  0.99001627  0.82071692    -0.23050
C2110       C  0.03165520  0.97425510  0.84514766     0.19840
F2111       F  0.01751710  0.94962743  0.85253507    -0.13010
F2112       F  0.06818152  0.96529443  0.88131804    -0.15380
F2113       F  0.03462612  0.02703375  0.78674461    -0.15380
F2114       F  0.07436451  0.05003509  0.82235267    -0.13010
C2115       C  0.02580850  0.90687647  0.77807719     0.25000
C2116       C  0.02819272  0.93727181  0.78243501    -0.23110
C2117       C  0.05646593  0.94807605  0.78699021     0.19900
C2118       C  0.07932688  0.92964744  0.79312741     0.24940
C2119       C  0.07909315  0.90151605  0.78119402    -0.23050
C2120       C  0.05133674  0.88964396  0.77476795     0.19840
F2121       F  0.04882260  0.86218921  0.76468370    -0.13010
F2122       F  0.99918450  0.89430894  0.77496730    -0.15380
F2123       F  0.10359478  0.94106929  0.80595094    -0.15380
F2124       F  0.06342195  0.97579521  0.78124626    -0.13010
C2125       C  0.77744331  0.16005877  0.71331881     0.25000
C2126       C  0.77031267  0.18315268  0.73199278    -0.23110
C2127       C  0.78712407  0.18703581  0.75728276     0.19900
C2128       C  0.80814424  0.16724808  0.76534989     0.24940
C2129       C  0.81761858  0.14625116  0.74558054    -0.23050
C2130       C  0.80179201  0.14230085  0.71956804     0.19840
F2131       F  0.81096469  0.12273506  0.69962340    -0.13010
F2132       F  0.76217019  0.15598896  0.68837562    -0.15380
F2133       F  0.82286345  0.17171083  0.79064680    -0.15380
F2134       F  0.78562899  0.21194373  0.77271809    -0.13010
C2135       C  0.82793553  0.22436777  0.68211728     0.25000
C2136       C  0.82810760  0.23144388  0.65228857    -0.23110
C2137       C  0.80030447  0.23385024  0.63875067     0.19900
C2138       C  0.77420625  0.23005744  0.65499885     0.24940
C2139       C  0.77520231  0.22762930  0.68559524    -0.23050
C2140       C  0.80290487  0.22766191  0.69851028     0.19840
F2141       F  0.80632592  0.23280705  0.72712726    -0.13010
F2142       F  0.85201208  0.21434135  0.69616489    -0.15380
F2143       F  0.74809268  0.22994790  0.64095571    -0.15380
F2144       F  0.79804279  0.23994359  0.61016839    -0.13010
C2145       C  0.71137800  0.30427502  0.64453124     0.25000
C2146       C  0.73490519  0.32370420  0.64747840    -0.23110
C2147       C  0.75667307  0.31759604  0.66829162     0.19900
C2148       C  0.75454629  0.29329305  0.68627782     0.24940
C2149       C  0.73067296  0.27415720  0.68382429    -0.23050
C2150       C  0.70932520  0.27976654  0.66243588     0.19840
F2151       F  0.68603579  0.26180797  0.65939267    -0.13010
F2152       F  0.68942321  0.31001387  0.62555222    -0.15380
F2153       F  0.77510576  0.28931843  0.70716604    -0.15380
F2154       F  0.77911936  0.33639698  0.67252172    -0.13010
C2155       C  0.64521056  0.30660975  0.73743600     0.25000
C2156       C  0.65996161  0.32590848  0.75630475    -0.23110
C2157       C  0.68962767  0.31993454  0.76303931     0.19900
C2158       C  0.70475937  0.29810525  0.74892666     0.24940
C2159       C  0.68978276  0.27789182  0.73193482    -0.23050
C2160       C  0.65979434  0.28210111  0.72630012     0.19840
F2161       F  0.64475313  0.26250705  0.71012751    -0.13010
F2162       F  0.61701690  0.31132470  0.72960211    -0.15380
F2163       F  0.73371528  0.29464431  0.75470308    -0.15380
F2164       F  0.70415671  0.33479542  0.78412692    -0.13010
C2165       C  0.64341017  0.01825832  0.45067309     0.25000
C2166       C  0.65225318  0.99540189  0.43244450    -0.23110
C2167       C  0.67874620  0.98125673  0.43860752     0.19900
C2168       C  0.69797574  0.99258183  0.45900033     0.24940
C2169       C  0.68916826  0.01467957  0.47792507    -0.23050
C2170       C  0.66138253  0.02715614  0.47400637     0.19840
F2171       F  0.65223686  0.04850817  0.49203265    -0.13010
F2172       F  0.61841196  0.03293755  0.44488634    -0.15380
F2173       F  0.72554524  0.98189990  0.46011009    -0.15380
F2174       F  0.68777665  0.95870497  0.42193158    -0.13010
C2175       C  0.71656157  0.09535729  0.48205457     0.25000
C2176       C  0.72681012  0.06664380  0.47918006    -0.23110
C2177       C  0.74023155  0.05869062  0.45317240     0.19900
C2178       C  0.74532067  0.07894595  0.43166166     0.24940
C2179       C  0.73308287  0.10703084  0.43301136    -0.23050
C2180       C  0.71881402  0.11515224  0.45876499     0.19840
F2181       F  0.70651836  0.14170048  0.46112342    -0.13010
F2182       F  0.70372146  0.10391600  0.50707502    -0.15380
F2183       F  0.76142158  0.07045959  0.40845963    -0.15380
F2184       F  0.75003870  0.03136378  0.44898408    -0.13010
C2185       C  0.81436016  0.21455704  0.25325585     0.25000
C2186       C  0.81919865  0.23697739  0.27355655    -0.23110
C2187       C  0.84450805  0.23569369  0.29099782     0.19900
C2188       C  0.86382969  0.21204368  0.28891330     0.24940
C2189       C  0.85830222  0.18942240  0.26914386    -0.23050
C2190       C  0.83371207  0.19131817  0.25096833     0.19840
F2191       F  0.82724507  0.16939122  0.23232829    -0.13010
F2192       F  0.78981233  0.21385597  0.23680813    -0.15380
F2193       F  0.88696553  0.21037963  0.30733337    -0.15380
F2194       F  0.84990840  0.25683215  0.31078078    -0.13010
C2195       C  0.78114258  0.23381434  0.34981719     0.25000
C2196       C  0.77531349  0.23325174  0.31965179    -0.23110
C2197       C  0.76183645  0.20870741  0.30803994     0.19900
C2198       C  0.75059413  0.18766015  0.32595173     0.24940
C2199       C  0.75864495  0.18601580  0.35559386    -0.23050
C2200       C  0.77411239  0.20969617  0.36747238     0.19840
F2201       F  0.78234575  0.20957831  0.39571185    -0.13010
F2202       F  0.79389208  0.25743097  0.36196918    -0.15380
F2203       F  0.73183690  0.16822590  0.31373702    -0.15380
F2204       F  0.75636490  0.20640142  0.27928942    -0.13010
C2205       C  0.76927133  0.36293695  0.19965458     0.25000
C2206       C  0.74423853  0.35477059  0.18357311    -0.23110
C2207       C  0.72813500  0.33064392  0.19301350     0.19900
C2208       C  0.73906566  0.31273226  0.21440133     0.24940
C2209       C  0.76304279  0.32108570  0.23143129    -0.23050
C2210       C  0.77802269  0.34668237  0.22413680     0.19840
F2211       F  0.80170681  0.35512883  0.23983601    -0.13010
F2212       F  0.78589219  0.38553334  0.19096145    -0.15380
F2213       F  0.72685862  0.28629224  0.21746026    -0.15380
F2214       F  0.70318032  0.32244805  0.17908779    -0.13010
C2215       C  0.81750756  0.25942851  0.18031757     0.25000
C2216       C  0.84564172  0.27173656  0.17731933    -0.23110
C2217       C  0.85731395  0.28718933  0.20112606     0.19900
C2218       C  0.84078542  0.29079847  0.22673733     0.24940
C2219       C  0.81193957  0.28012039  0.22846969    -0.23050
C2220       C  0.80048541  0.26492583  0.20465742     0.19840
F2221       F  0.77272867  0.25462388  0.20511692    -0.13010
F2222       F  0.80606955  0.24211664  0.15925703    -0.15380
F2223       F  0.85262036  0.30530008  0.24955814    -0.15380
F2224       F  0.88415770  0.29951818  0.19933072    -0.13010
C2225       C  0.71633992  0.15313499  0.76855475     0.25000
C2226       C  0.72269840  0.18299599  0.77160699    -0.23110
C2227       C  0.73601195  0.19218466  0.79738403     0.19900
C2228       C  0.74658818  0.17236405  0.81716773     0.24940
C2229       C  0.73794895  0.14300018  0.81623153    -0.23050
C2230       C  0.72257795  0.13348488  0.79139789     0.19840
F2231       F  0.71349800  0.10565828  0.78932207    -0.13010
F2232       F  0.70371659  0.14321434  0.74379555    -0.15380
F2233       F  0.76435934  0.18249598  0.83865364    -0.15380
F2234       F  0.74242767  0.22036300  0.80202251    -0.13010
C2235       C  0.66692164  0.25310486  0.81789729     0.25000
C2236       C  0.64054396  0.23756810  0.81828719    -0.23110
C2237       C  0.63391952  0.21933484  0.79463737     0.19900
C2238       C  0.65369701  0.21629631  0.77140707     0.24940
C2239       C  0.68060643  0.23115671  0.77154320    -0.23050
C2240       C  0.68669212  0.24981757  0.79512990     0.19840
F2241       F  0.71236082  0.26430061  0.79700578    -0.13010
F2242       F  0.67434375  0.27042875  0.84062046    -0.15380
F2243       F  0.64688167  0.19834866  0.74904993    -0.15380
F2244       F  0.60898818  0.20343422  0.79471327    -0.13010
C2245       C  0.73593884  0.45193154  0.05369437     0.25000
C2246       C  0.72450899  0.47779921  0.06468077    -0.23110
C2247       C  0.71489785  0.47856099  0.09365833     0.19900
C2248       C  0.71592202  0.45345194  0.11092892     0.24940
C2249       C  0.72769849  0.42761453  0.09973971    -0.23050
C2250       C  0.73903696  0.42789464  0.07131858     0.19840
F2251       F  0.75326370  0.40454506  0.06032094    -0.13010
F2252       F  0.74632463  0.45050327  0.02625353    -0.15380
F2253       F  0.70480001  0.45422457  0.13808805    -0.15380
F2254       F  0.70411955  0.50344353  0.10497860    -0.13010
C2255       C  0.69371692  0.46511951  0.98964993     0.25000
C2256       C  0.68647667  0.48235660  0.01363503    -0.23110
C2257       C  0.65974486  0.47729819  0.02774529     0.19900
C2258       C  0.64098310  0.45490477  0.01814995     0.24940
C2259       C  0.64819432  0.43826828  0.99350958    -0.23050
C2260       C  0.67413286  0.44489395  0.97863370     0.19840
F2261       F  0.68158629  0.43014853  0.95423459    -0.13010
F2262       F  0.72038172  0.46730551  0.97716676    -0.15380
F2263       F  0.61670072  0.44863548  0.03365717    -0.15380
F2264       F  0.65226096  0.49346886  0.05114032    -0.13010
C2265       C  0.66155801  0.53893165  0.97775069     0.25000
C2266       C  0.69111876  0.53054367  0.97569341    -0.23110
C2267       C  0.70156054  0.51980099  0.94930795     0.19900
C2268       C  0.68283527  0.51664559  0.92579636     0.24940
C2269       C  0.65388231  0.52719917  0.92684614    -0.23050
C2270       C  0.64315571  0.53788289  0.95323664     0.19840
F2271       F  0.61543791  0.54812721  0.95500901    -0.13010
F2272       F  0.65084171  0.54875163  0.00331021    -0.15380
F2273       F  0.69346818  0.50418731  0.90129368    -0.15380
F2274       F  0.72986953  0.51154349  0.94640659    -0.13010
C2275       C  0.72737920  0.59086288  0.96987974     0.25000
C2276       C  0.74367668  0.56664028  0.97879694    -0.23110
C2277       C  0.76958686  0.55994360  0.96389301     0.19900
C2278       C  0.77945582  0.57735119  0.94134734     0.24940
C2279       C  0.76305883  0.60133608  0.93196924    -0.23050
C2280       C  0.73690627  0.60798942  0.94658976     0.19840
F2281       F  0.71994892  0.63025885  0.93757302    -0.13010
F2282       F  0.70225042  0.59788206  0.98371891    -0.15380
F2283       F  0.80494161  0.57029901  0.92809600    -0.15380
F2284       F  0.78517243  0.53600838  0.97087088    -0.13010
C2285       C  0.84458975  0.02351769  0.96494552     0.25000
C2286       C  0.81863636  0.01745894  0.98018992    -0.23110
C2287       C  0.81127185  0.03539994  0.00361542     0.19900
C2288       C  0.83063083  0.05611068  0.01391242     0.24940
C2289       C  0.85503073  0.06432215  0.99741842    -0.23050
C2290       C  0.86208758  0.04762040  0.97281177     0.19840
F2291       F  0.88482437  0.05539268  0.95578995    -0.13010
F2292       F  0.85224246  0.00691718  0.94191508    -0.15380
F2293       F  0.82316494  0.07134223  0.03802870    -0.15380
F2294       F  0.78474639  0.03337696  0.01640422    -0.13010
C2295       C  0.75873788  0.06525407  0.92369645     0.25000
C2296       C  0.76852316  0.06646734  0.89463583    -0.23110
C2297       C  0.78249440  0.04170197  0.88335274     0.19900
C2298       C  0.78687964  0.01698086  0.90101917     0.24940
C2299       C  0.77871779  0.01722919  0.93054693    -0.23050
C2300       C  0.76558022  0.04222793  0.94158333     0.19840
F2301       F  0.75645427  0.04338812  0.96944907    -0.13010
F2302       F  0.74183670  0.08654436  0.93516540    -0.15380
F2303       F  0.79936479  0.99301199  0.88947415    -0.15380
F2304       F  0.79214460  0.04148171  0.85564262    -0.13010
C2305       C  0.74404373  0.91482519  0.06288905     0.25000
C2306       C  0.76687660  0.89653326  0.07177929    -0.23110
C2307       C  0.79137261  0.89337933  0.05378563     0.19900
C2308       C  0.79358985  0.90906524  0.02798203     0.24940
C2309       C  0.77138797  0.92838868  0.01962738    -0.23050
C2310       C  0.74620751  0.93054400  0.03705644     0.19840
F2311       F  0.72465177  0.94947444  0.03016693    -0.13010
F2312       F  0.72067051  0.91916476  0.08038466    -0.15380
F2313       F  0.81798847  0.90624972  0.01160683    -0.15380
F2314       F  0.81410735  0.87654943  0.06226872    -0.13010
C2315       C  0.81603604  0.00113473  0.06832756     0.25000
C2316       C  0.84707920  0.00025991  0.06958814    -0.23110
C2317       C  0.86160253  0.98495659  0.04732917     0.19900
C2318       C  0.84562754  0.97278267  0.02401139     0.24940
C2319       C  0.81481606  0.97393962  0.02341070    -0.23050
C2320       C  0.80037892  0.98618391  0.04712342     0.19840
F2321       F  0.77076651  0.98834126  0.04715288    -0.13010
F2322       F  0.80034700  0.01869680  0.08607164    -0.15380
F2323       F  0.86022230  0.96080141  0.00144866    -0.15380
F2324       F  0.89108507  0.98202301  0.04764831    -0.13010
C2325       C  0.82418348  0.68587993  0.25727358     0.25000
C2326       C  0.82581322  0.65656430  0.24831201    -0.23110
C2327       C  0.80178706  0.64508159  0.23273250     0.19900
C2328       C  0.77728659  0.66262647  0.22638405     0.24940
C2329       C  0.77741045  0.69228326  0.23359050    -0.23050
C2330       C  0.80186582  0.70379717  0.24773933     0.19840
F2331       F  0.80314040  0.73236930  0.25443371    -0.13010
F2332       F  0.84415965  0.69748173  0.27588623    -0.15380
F2333       F  0.75361947  0.65082529  0.21300350    -0.15380
F2334       F  0.80199334  0.61725153  0.22342455    -0.13010
C2335       C  0.78052285  0.71722522  0.16785090     0.25000
C2336       C  0.77505508  0.73715679  0.19034283    -0.23110
C2337       C  0.79436579  0.76050729  0.19434468     0.19900
C2338       C  0.81866322  0.76375421  0.17650889     0.24940
C2339       C  0.82482759  0.74329647  0.15474833    -0.23050
C2340       C  0.80531467  0.72022410  0.15021837     0.19840
F2341       F  0.81120925  0.69972400  0.12996411    -0.13010
F2342       F  0.76220194  0.69453046  0.16346914    -0.15380
F2343       F  0.83735343  0.78604790  0.18162922    -0.15380
F2344       F  0.79044002  0.77951136  0.21647155    -0.13010
C2345       C  0.73260927  0.80840237  0.20443492     0.25000
C2346       C  0.72931844  0.78080122  0.19213361    -0.23110
C2347       C  0.73199026  0.77819074  0.16171744     0.19900
C2348       C  0.74131782  0.80186984  0.14491990     0.24940
C2349       C  0.74518982  0.82934141  0.15779468    -0.23050
C2350       C  0.73718945  0.83245841  0.18720240     0.19840
F2351       F  0.73548142  0.85885724  0.20009727    -0.13010
F2352       F  0.73458427  0.81202773  0.23347848    -0.15380
F2353       F  0.74789219  0.79740768  0.11665349    -0.15380
F2354       F  0.72776571  0.75220825  0.14861501    -0.13010
C2355       C  0.68340749  0.79680322  0.25946678     0.25000
C2356       C  0.68275584  0.77680037  0.23629088    -0.23110
C2357       C  0.66272240  0.78155396  0.21349835     0.19900
C2358       C  0.64538370  0.80667700  0.21296691     0.24940
C2359       C  0.64737011  0.82710932  0.23551503    -0.23050
C2360       C  0.66570353  0.82134853  0.25920092     0.19840
F2361       F  0.66870253  0.84116244  0.28082823    -0.13010
F2362       F  0.70427271  0.79516177  0.28027230    -0.15380
F2363       F  0.62827820  0.81205858  0.18952710    -0.15380
F2364       F  0.66143730  0.76282903  0.19081399    -0.13010
C2365       C  0.76118278  0.93310306  0.58298652     0.25000
C2366       C  0.73893859  0.92664877  0.60290463    -0.23110
C2367       C  0.71571347  0.94621936  0.60616555     0.19900
C2368       C  0.71420029  0.97119492  0.58898687     0.24940
C2369       C  0.73578351  0.97694998  0.56810386    -0.23050
C2370       C  0.75956513  0.95780778  0.56568019     0.19840
F2371       F  0.78033079  0.96200710  0.54524280    -0.13010
F2372       F  0.78351775  0.91423718  0.57883247    -0.15380
F2373       F  0.69105008  0.98926876  0.59191473    -0.15380
F2374       F  0.69355666  0.94017858  0.62459952    -0.13010
C2375       C  0.64015517  0.72380138  0.30380700     0.25000
C2376       C  0.65111980  0.73338684  0.33069835    -0.23110
C2377       C  0.67999972  0.74373482  0.33228395     0.19900
C2378       C  0.69810669  0.74284459  0.30809672     0.24940
C2379       C  0.68766568  0.73236006  0.28132986    -0.23050
C2380       C  0.65826573  0.72350113  0.27921793     0.19840
F2381       F  0.64744979  0.71368192  0.25358186    -0.13010
F2382       F  0.61250544  0.71331498  0.30173782    -0.15380
F2383       F  0.72576017  0.75307198  0.31076529    -0.15380
F2384       F  0.69109162  0.75368940  0.35780424    -0.13010
C2385       C  0.75837361  0.69751267  0.29871504     0.25000
C2386       C  0.73594810  0.69033560  0.27911470    -0.23110
C2387       C  0.72289043  0.66281138  0.28112765     0.19900
C2388       C  0.73195167  0.64315905  0.30274952     0.24940
C2389       C  0.75503964  0.65040126  0.32180621    -0.23050
C2390       C  0.76872772  0.67748091  0.31855313     0.19840
F2391       F  0.79190733  0.68505843  0.33550806    -0.13010
F2392       F  0.77106757  0.72396359  0.29823380    -0.15380
F2393       F  0.71767519  0.61764465  0.30558109    -0.15380
F2394       F  0.70136629  0.65509763  0.26229690    -0.13010
C2395       C  0.64813391  0.94498287  0.51603807     0.25000
C2396       C  0.66211011  0.92330715  0.49929694    -0.23110
C2397       C  0.69255267  0.92660018  0.49440999     0.19900
C2398       C  0.70846103  0.94879009  0.50750308     0.24940
C2399       C  0.69408868  0.97163720  0.52133807    -0.23050
C2400       C  0.66378769  0.96946742  0.52579516     0.19840
F2401       F  0.64935684  0.99119344  0.53940615    -0.13010
F2402       F  0.61950977  0.94282236  0.52314875    -0.15380
F2403       F  0.73780189  0.94986312  0.50327038    -0.15380
F2404       F  0.70707959  0.90963277  0.47519753    -0.13010
C2405       C  0.09224036  0.71138249  0.47906248     0.25000
C2406       C  0.06938881  0.73021133  0.48716438    -0.23110
C2407       C  0.06630488  0.75639228  0.47235919     0.19900
C2408       C  0.08727881  0.76518480  0.45271683     0.24940
C2409       C  0.10814011  0.74541451  0.44211392    -0.23050
C2410       C  0.11074947  0.71843832  0.45576331     0.19840
F2411       F  0.12994797  0.69853162  0.44562074    -0.13010
F2412       F  0.09601719  0.68597530  0.49305576    -0.15380
F2413       F  0.08433275  0.79164393  0.44041182    -0.15380
F2414       F  0.04274179  0.77360047  0.47691691    -0.13010
C2415       C  0.03588637  0.65388897  0.48364874     0.25000
C2416       C  0.02657156  0.68298224  0.48403487    -0.23110
C2417       C  0.01267788  0.69398449  0.45938465     0.19900
C2418       C  0.00745673  0.67640434  0.43529554     0.24940
C2419       C  0.01884409  0.64801205  0.43360193    -0.23050
C2420       C  0.03276280  0.63673531  0.45832411     0.19840
F2421       F  0.04432728  0.60977542  0.45759275    -0.13010
F2422       F  0.04893879  0.64250652  0.50741886    -0.15380
F2423       F  0.99248523  0.68783570  0.41259902    -0.15380
F2424       F  0.00402107  0.72202174  0.45860576    -0.13010
C2425       C  0.95902525  0.68511953  0.50613717     0.25000
C2426       C  0.98104810  0.67923614  0.52675504    -0.23110
C2427       C  0.97907751  0.65341728  0.54258913     0.19900
C2428       C  0.95500572  0.63463260  0.53880127     0.24940
C2429       C  0.93260810  0.64114986  0.51884822    -0.23050
C2430       C  0.93533372  0.66630119  0.50214483     0.19840
F2431       F  0.91371885  0.67378031  0.48335752    -0.13010
F2432       F  0.95952745  0.70985126  0.49064202    -0.15380
F2433       F  0.95263406  0.61102040  0.55589331    -0.15380
F2434       F  0.00003031  0.64687579  0.56238133    -0.13010
C2435       C  0.95014323  0.72307505  0.61723424     0.25000
C2436       C  0.92823474  0.74038343  0.60453441    -0.23110
C2437       C  0.93248378  0.74966322  0.57571074     0.19900
C2438       C  0.95494653  0.73877867  0.55899222     0.24940
C2439       C  0.97776238  0.72347975  0.57187719    -0.23050
C2440       C  0.97539940  0.71562891  0.60124142     0.19840
F2441       F  0.99728693  0.70065577  0.61417334    -0.13010
F2442       F  0.94713812  0.71328257  0.64467026    -0.15380
F2443       F  0.95693154  0.74761325  0.53108777    -0.15380
F2444       F  0.91498472  0.77004534  0.56351609    -0.13010
C2445       C  0.97767848  0.60046665  0.71843827     0.25000
C2446       C  0.97537004  0.57129268  0.72662891    -0.23110
C2447       C  0.94852335  0.56133180  0.73743411     0.19900
C2448       C  0.92462364  0.57980821  0.73983704     0.24940
C2449       C  0.92627002  0.60852090  0.73014959    -0.23050
C2450       C  0.95318120  0.61890043  0.71987334     0.19840
F2451       F  0.95534650  0.64635590  0.71000350    -0.13010
F2452       F  0.00342017  0.61081071  0.70832908    -0.15380
F2453       F  0.89923676  0.56927043  0.75073870    -0.15380
F2454       F  0.94568441  0.53390915  0.74710795    -0.13010
C2455       C  0.97250318  0.53679312  0.65732047     0.25000
C2456       C  0.97639678  0.52350823  0.68445266    -0.23110
C2457       C  0.95749509  0.50105650  0.69218642     0.19900
C2458       C  0.93722640  0.49019887  0.67261282     0.24940
C2459       C  0.93133195  0.50464712  0.64645927    -0.23050
C2460       C  0.94938507  0.52804235  0.63877354     0.19840
F2461       F  0.94403154  0.54294485  0.61411667    -0.13010
F2462       F  0.99054244  0.55852728  0.64921212    -0.15380
F2463       F  0.92147571  0.46656176  0.68034751    -0.15380
F2464       F  0.95895407  0.48900651  0.71881642    -0.13010
C2465       C  0.00788481  0.45868197  0.69355688     0.25000
C2466       C  0.02302483  0.48288176  0.68364486    -0.23110
C2467       C  0.03209279  0.48317384  0.65440493     0.19900
C2468       C  0.02739419  0.45871945  0.63623246     0.24940
C2469       C  0.01090896  0.43509059  0.64627497    -0.23050
C2470       C  0.99880194  0.43727667  0.67437745     0.19840
F2471       F  0.98057445  0.41646919  0.68451896    -0.13010
F2472       F  0.00107230  0.45601884  0.72197492    -0.15380
F2473       F  0.03960789  0.45778792  0.60955190    -0.15380
F2474       F  0.04656596  0.50644771  0.64397566    -0.13010
C2475       C  0.08996846  0.47884877  0.71204250     0.25000
C2476       C  0.06575944  0.48328223  0.73029907    -0.23110
C2477       C  0.06118903  0.46431806  0.75342814     0.19900
C2478       C  0.08112551  0.44249000  0.75925900     0.24940
C2479       C  0.10484798  0.43726260  0.74061983    -0.23050
C2480       C  0.10925132  0.45568902  0.71697408     0.19840
F2481       F  0.13133048  0.45056264  0.69812605    -0.13010
F2482       F  0.09480627  0.49688425  0.68951971    -0.15380
F2483       F  0.07635274  0.42519167  0.78244068    -0.15380
F2484       F  0.03727317  0.46699255  0.77052778    -0.13010
C2485       C  0.84620388  0.73293925  0.77655235     0.25000
C2486       C  0.81555951  0.73058862  0.78000993    -0.23110
C2487       C  0.80275251  0.70325178  0.77617856     0.19900
C2488       C  0.81963409  0.67942254  0.76884057     0.24940
C2489       C  0.84873751  0.68299091  0.75940721    -0.23050
C2490       C  0.86244171  0.70969038  0.76497725     0.19840
F2491       F  0.89069931  0.71398108  0.75731722    -0.13010
F2492       F  0.85977232  0.75856678  0.78152720    -0.15380
F2493       F  0.80630091  0.65318633  0.76772497    -0.15380
F2494       F  0.77334999  0.70003172  0.77544865    -0.13010
C2495       C  0.79632151  0.73331163  0.84707498     0.25000
C2496       C  0.77276963  0.73650429  0.82749602    -0.23110
C2497       C  0.74996157  0.71595880  0.82851414     0.19900
C2498       C  0.75068277  0.69317158  0.84808455     0.24940
C2499       C  0.77538303  0.68847008  0.86552095    -0.23050
C2500       C  0.79795319  0.70912017  0.86543449     0.19840
F2501       F  0.82259181  0.70457620  0.88124038    -0.13010
F2502       F  0.81890111  0.75233675  0.84665858    -0.15380
F2503       F  0.72927384  0.67281944  0.84654884    -0.15380
F2504       F  0.72935355  0.71466954  0.80749381    -0.13010
C2505       C  0.72616239  0.78929364  0.84936826     0.25000
C2506       C  0.72556364  0.77909567  0.82055299    -0.23110
C2507       C  0.70043166  0.76482142  0.81045731     0.19900
C2508       C  0.67696259  0.75983900  0.82870721     0.24940
C2509       C  0.67658760  0.77116994  0.85708184    -0.23050
C2510       C  0.70160374  0.78575541  0.86744594     0.19840
F2511       F  0.70195790  0.79721491  0.89453959    -0.13010
F2512       F  0.75032042  0.80293666  0.85976999    -0.15380
F2513       F  0.65423908  0.74376161  0.81844205    -0.15380
F2514       F  0.69947198  0.75327787  0.78344199    -0.13010
C2515       C  0.72768452  0.84961176  0.78414623     0.25000
C2516       C  0.72722108  0.82125501  0.77283603    -0.23110
C2517       C  0.70444551  0.81371395  0.75360036     0.19900
C2518       C  0.68318278  0.83372087  0.74560064     0.24940
C2519       C  0.68234188  0.86140992  0.75827580    -0.23050
C2520       C  0.70509337  0.86935272  0.77741015     0.19840
F2521       F  0.70467533  0.89560305  0.79060645    -0.13010
F2522       F  0.74967767  0.85793859  0.80216954    -0.15380
F2523       F  0.66179381  0.82521954  0.72686378    -0.15380
F2524       F  0.70247818  0.78680530  0.74222028    -0.13010
C2525       C  0.75275638  0.80248294  0.70826265     0.25000
C2526       C  0.77080377  0.81504743  0.72925550    -0.23110
C2527       C  0.78092835  0.84347655  0.72499377     0.19900
C2528       C  0.77340463  0.85863328  0.69949701     0.24940
C2529       C  0.75348824  0.84645142  0.67937508    -0.23050
C2530       C  0.74160125  0.81895818  0.68582849     0.19840
F2531       F  0.71916134  0.80756033  0.67006352    -0.13010
F2532       F  0.74446056  0.77441243  0.71044795    -0.15380
F2533       F  0.78589648  0.88468092  0.69442540    -0.15380
F2534       F  0.79850930  0.85618191  0.74508983    -0.13010
C2535       C  0.81201060  0.74889360  0.71497891     0.25000
C2536       C  0.81666822  0.77244770  0.73373751    -0.23110
C2537       C  0.84046019  0.79105649  0.72858358     0.19900
C2538       C  0.85864192  0.78669174  0.70444726     0.24940
C2539       C  0.85352505  0.76339363  0.68547564    -0.23050
C2540       C  0.83056290  0.74407082  0.69157542     0.19840
F2541       F  0.82459378  0.72176007  0.67322716    -0.13010
F2542       F  0.78874031  0.73109781  0.71871551    -0.15380
F2543       F  0.88006076  0.80607795  0.69865026    -0.15380
F2544       F  0.84571005  0.81368943  0.74665831    -0.13010
C2545       C  0.52784169  0.77890627  0.41108619     0.25000
C2546       C  0.52763881  0.77717458  0.44154465    -0.23110
C2547       C  0.55326059  0.76861220  0.45574605     0.19900
C2548       C  0.57787785  0.76091279  0.44004276     0.24940
C2549       C  0.57604704  0.75629318  0.40974711    -0.23050
C2550       C  0.55121030  0.76702891  0.39518451     0.19840
F2551       F  0.54875354  0.76477054  0.36598950    -0.13010
F2552       F  0.50485390  0.79070766  0.39681341    -0.15380
F2553       F  0.60310709  0.75628413  0.45495813    -0.15380
F2554       F  0.55396425  0.76562821  0.48491546    -0.13010
C2555       C  0.52580537  0.84457659  0.45855999     0.25000
C2556       C  0.52226941  0.82538705  0.48192467    -0.23110
C2557       C  0.54371466  0.82544186  0.50392448     0.19900
C2558       C  0.56778424  0.84379173  0.50264187     0.24940
C2559       C  0.57274844  0.86071434  0.47806025    -0.23050
C2560       C  0.55123934  0.86158781  0.45627567     0.19840
F2561       F  0.55591033  0.87708283  0.43189066    -0.13010
F2562       F  0.50579355  0.84498297  0.43677520    -0.15380
F2563       F  0.58874028  0.84170158  0.52350457    -0.15380
F2564       F  0.54408342  0.80491198  0.52455180    -0.13010
C2565       C  0.47100586  0.86661942  0.55385229     0.25000
C2566       C  0.48509159  0.85668309  0.57916752    -0.23110
C2567       C  0.49685091  0.82853134  0.57874632     0.19900
C2568       C  0.49331022  0.81040664  0.55472991     0.24940
C2569       C  0.47920883  0.82002270  0.52942769    -0.23050
C2570       C  0.46832267  0.84851445  0.52915525     0.19840
F2571       F  0.45479711  0.85866791  0.50507704    -0.13010
F2572       F  0.45910603  0.89343610  0.55325616    -0.15380
F2573       F  0.50561182  0.78384750  0.55579112    -0.15380
F2574       F  0.51246357  0.81847398  0.60167519    -0.13010
C2575       C  0.44393074  0.75405942  0.54825433     0.25000
C2576       C  0.43567301  0.77322441  0.52631678    -0.23110
C2577       C  0.40724089  0.78486835  0.52668376     0.19900
C2578       C  0.38812630  0.77839357  0.54963036     0.24940
C2579       C  0.39653359  0.75843019  0.57097140    -0.23050
C2580       C  0.42373717  0.74456757  0.56832981     0.19840
F2581       F  0.43238595  0.72474566  0.58822060    -0.13010
F2582       F  0.47162318  0.74387587  0.55014946    -0.15380
F2583       F  0.36238723  0.79274154  0.55196610    -0.15380
F2584       F  0.39864025  0.80345489  0.50570890    -0.13010
C2585       C  0.47284054  0.52568295  0.84618909     0.25000
C2586       C  0.47817290  0.52371311  0.81610392    -0.23110
C2587       C  0.49089724  0.54744053  0.80245423     0.19900
C2588       C  0.50169926  0.57040680  0.81851339     0.24940
C2589       C  0.49435754  0.57431096  0.84807599    -0.23050
C2590       C  0.47973404  0.55131932  0.86186017     0.19840
F2591       F  0.47219002  0.55346626  0.89013812    -0.13010
F2592       F  0.46069751  0.50300599  0.86019590    -0.15380
F2593       F  0.52023696  0.58868019  0.80473648    -0.15380
F2594       F  0.49597517  0.54722715  0.77357226    -0.13010
C2595       C  0.41321109  0.52758170  0.78670588     0.25000
C2596       C  0.43666317  0.51947132  0.76878753    -0.23110
C2597       C  0.44264976  0.53613749  0.74408819     0.19900
C2598       C  0.42583146  0.56031501  0.73756644     0.24940
C2599       C  0.40307846  0.56903409  0.75592499    -0.23050
C2600       C  0.39653245  0.55227026  0.78033795     0.19840
F2601       F  0.37515007  0.56070776  0.79880069    -0.13010
F2602       F  0.40692764  0.51191835  0.81062476    -0.15380
F2603       F  0.43282167  0.57631544  0.71402428    -0.15380
F2604       F  0.46585401  0.52986249  0.72697252    -0.13010
C2605       C  0.54221252  0.50625682  0.80841950     0.25000
C2606       C  0.52522674  0.48343894  0.81877080    -0.23110
C2607       C  0.53272979  0.47121920  0.84571205     0.19900
C2608       C  0.55721807  0.48177744  0.86148852     0.24940
C2609       C  0.57282658  0.50604442  0.85139773    -0.23050
C2610       C  0.56305618  0.51932152  0.82574754     0.19840
F2611       F  0.57529011  0.54427023  0.81617297    -0.13010
F2612       F  0.53856814  0.51629793  0.78116930    -0.15380
F2613       F  0.56601657  0.46790642  0.88579881    -0.15380
F2614       F  0.51704084  0.44873289  0.85616311    -0.13010
C2615       C  0.52723506  0.40438121  0.79435972     0.25000
C2616       C  0.52658758  0.43228257  0.78221076    -0.23110
C2617       C  0.55220458  0.44306615  0.76967546     0.19900
C2618       C  0.57713860  0.42623175  0.76775707     0.24940
C2619       C  0.57890643  0.39927738  0.78167444    -0.23050
C2620       C  0.55347945  0.38814587  0.79462504     0.19840
F2621       F  0.55429520  0.36229146  0.80826605    -0.13010
F2622       F  0.50286978  0.39341445  0.80682443    -0.15380
F2623       F  0.60027269  0.43693395  0.75285481    -0.15380
F2624       F  0.55272402  0.46957588  0.75740712    -0.13010
C2625       C  0.84507193  0.45822237  0.52015479     0.25000
C2626       C  0.81888716  0.47392825  0.51668546    -0.23110
C2627       C  0.81272867  0.49647385  0.53609441     0.19900
C2628       C  0.83188784  0.50277253  0.55882294     0.24940
C2629       C  0.85656380  0.48524806  0.56411478    -0.23050
C2630       C  0.86339434  0.46330546  0.54419988     0.19840
F2631       F  0.88680610  0.44592690  0.54883995    -0.13010
F2632       F  0.85284704  0.43802067  0.50024025    -0.15380
F2633       F  0.82491595  0.52445630  0.57749857    -0.15380
F2634       F  0.78796035  0.51234784  0.53306025    -0.13010
C2635       C  0.74221070  0.44007698  0.53265530     0.25000
C2636       C  0.76942719  0.43384426  0.51996695    -0.23110
C2637       C  0.78694908  0.41227417  0.53297829     0.19900
C2638       C  0.77713937  0.39703795  0.55748140     0.24940
C2639       C  0.74949675  0.40273242  0.56945323    -0.23050
C2640       C  0.73210831  0.42432020  0.55640806     0.19840
F2641       F  0.70513276  0.43042494  0.56698246    -0.13010
F2642       F  0.72474650  0.46083621  0.52122282    -0.15380
F2643       F  0.79494199  0.37711188  0.56981512    -0.15380
F2644       F  0.81246636  0.40417093  0.52064385    -0.13010
C2645       C  0.85064905  0.51560724  0.47590105     0.25000
C2646       C  0.81988861  0.51697312  0.47229237    -0.23110
C2647       C  0.80649807  0.54391621  0.47648427     0.19900
C2648       C  0.82289032  0.56846635  0.48277013     0.24940
C2649       C  0.85238683  0.56625720  0.49189117    -0.23050
C2650       C  0.86650720  0.53958010  0.48707783     0.19840
F2651       F  0.89506753  0.53619930  0.49431628    -0.13010
F2652       F  0.86501817  0.49059461  0.47039671    -0.15380
F2653       F  0.80892914  0.59435937  0.48196578    -0.15380
F2654       F  0.77708075  0.54629073  0.47767745    -0.13010
C2655       C  0.80086539  0.51780703  0.40311933     0.25000
C2656       C  0.77828598  0.51316745  0.42329150    -0.23110
C2657       C  0.75442135  0.53252917  0.42297249     0.19900
C2658       C  0.75207440  0.55408393  0.40226185     0.24940
C2659       C  0.77565267  0.56045955  0.38408940    -0.23050
C2660       C  0.80004295  0.54187495  0.38439826     0.19840
F2661       F  0.82380936  0.54820114  0.36815579    -0.13010
F2662       F  0.82459583  0.50024741  0.40298035    -0.15380
F2663       F  0.72888880  0.57240277  0.40369188    -0.15380
F2664       F  0.73506116  0.53343010  0.44499078    -0.13010
C2665       C  0.16746776  0.94795009  0.98368994     0.25000
C2666       C  0.14590144  0.93856373  0.00286906    -0.23110
C2667       C  0.13924304  0.95585974  0.02717841     0.19900
C2668       C  0.15549301  0.98123013  0.03297705     0.24940
C2669       C  0.17951577  0.98849107  0.01543283    -0.23050
C2670       C  0.18526349  0.97110070  0.99097617     0.19840
F2671       F  0.21136884  0.97272546  0.97746194    -0.13010
F2672       F  0.17446592  0.93175691  0.96007622    -0.15380
F2673       F  0.14953059  0.99713740  0.05698519    -0.15380
F2674       F  0.11883775  0.94700230  0.04641965    -0.13010
C2675       C  0.22550503  0.96408595  0.11740136     0.25000
C2676       C  0.22319225  0.93585763  0.10605399    -0.23110
C2677       C  0.21277503  0.93296466  0.07740304     0.19900
C2678       C  0.21562657  0.95582642  0.05845780     0.24940
C2679       C  0.21773581  0.98435016  0.06877785    -0.23050
C2680       C  0.22048228  0.98814782  0.09922408     0.19840
F2681       F  0.22104317  0.01507569  0.11094330    -0.13010
F2682       F  0.23411495  0.96849725  0.14521851    -0.15380
F2683       F  0.22085403  0.94910443  0.03046945    -0.15380
F2684       F  0.20516460  0.90673691  0.06626202    -0.13010
C2685       C  0.26204363  0.06300632  0.96307324     0.25000
C2686       C  0.23849822  0.07190487  0.98043169    -0.23110
C2687       C  0.22357058  0.09740110  0.97302482     0.19900
C2688       C  0.23187287  0.11326724  0.94841269     0.24940
C2689       C  0.25583825  0.10424001  0.93148746    -0.23050
C2690       C  0.27149133  0.07962035  0.94007635     0.19840
F2691       F  0.29550737  0.07073847  0.92528847    -0.13010
F2692       F  0.27503731  0.03706210  0.96709382    -0.15380
F2693       F  0.21569481  0.13646931  0.94042679    -0.15380
F2694       F  0.20038228  0.10626726  0.98896792    -0.13010
C2695       C  0.15881917  0.04350532  0.97397661     0.25000
C2696       C  0.18824928  0.03457074  0.97487564    -0.23110
C2697       C  0.20092374  0.02357260  0.94947584     0.19900
C2698       C  0.18464113  0.02041889  0.92434620     0.24940
C2699       C  0.15576240  0.03074144  0.92263222    -0.23050
C2700       C  0.14275270  0.04205755  0.94785544     0.19840
F2701       F  0.11492182  0.05215215  0.94712574    -0.13010
F2702       F  0.14586640  0.05390039  0.99825062    -0.15380
F2703       F  0.19726838  0.00659874  0.90157149    -0.15380
F2704       F  0.22879560  0.01381546  0.94920973    -0.13010
C2705       C  0.26387775  0.32560103  0.67883958     0.25000
C2706       C  0.27631894  0.35360327  0.67978773    -0.23110
C2707       C  0.28746890  0.36374821  0.70639848     0.19900
C2708       C  0.28716952  0.34573777  0.73103232     0.24940
C2709       C  0.27707360  0.31694104  0.72898210    -0.23050
C2710       C  0.26586822  0.30710925  0.70240042     0.19840
F2711       F  0.25594819  0.27958797  0.69938640    -0.13010
F2712       F  0.25102343  0.31543341  0.65420461    -0.15380
F2713       F  0.29766069  0.35598623  0.75662564    -0.15380
F2714       F  0.29959171  0.39044426  0.70827359    -0.13010
C2715       C  0.24049947  0.17060686  0.32311016     0.25000
C2716       C  0.22509244  0.14422834  0.32402681    -0.23110
C2717       C  0.21019615  0.13493778  0.29893155     0.19900
C2718       C  0.21001403  0.15238430  0.27388710     0.24940
C2719       C  0.22329143  0.17992462  0.27426999    -0.23050
C2720       C  0.23785643  0.18891652  0.29955961     0.19840
F2721       F  0.24965497  0.21567834  0.30181405    -0.13010
F2722       F  0.25628395  0.17989560  0.34640020    -0.15380
F2723       F  0.19573349  0.14308191  0.24976555    -0.15380
F2724       F  0.19484643  0.10985950  0.29909346    -0.13010
C2725       C  0.35391383  0.26851079  0.69776088     0.25000
C2726       C  0.34672225  0.24208432  0.68412528    -0.23110
C2727       C  0.32227672  0.22664498  0.69423382     0.19900
C2728       C  0.30471080  0.23783178  0.71617619     0.24940
C2729       C  0.31207001  0.26383924  0.73030794    -0.23050
C2730       C  0.33688212  0.27914724  0.72086609     0.19840
F2731       F  0.34466807  0.30425255  0.73410701    -0.13010
F2732       F  0.37666835  0.28454100  0.68807668    -0.15380
F2733       F  0.28020640  0.22315168  0.72368104    -0.15380
F2734       F  0.31490105  0.20075873  0.68225197    -0.13010
C2735       C  0.18407408  0.26815493  0.31243877     0.25000
C2736       C  0.15624707  0.25804154  0.32061737    -0.23110
C2737       C  0.14390720  0.23477125  0.30478784     0.19900
C2738       C  0.15911062  0.22241197  0.28126871     0.24940
C2739       C  0.18733487  0.23210658  0.27428799    -0.23050
C2740       C  0.19996570  0.25421198  0.29104526     0.19840
F2741       F  0.22758737  0.26340766  0.28579341    -0.13010
F2742       F  0.19617881  0.29184378  0.32525170    -0.15380
F2743       F  0.14642017  0.20102014  0.26541504    -0.15380
F2744       F  0.11766597  0.22351719  0.31236386    -0.13010
C2745       C  0.44455626  0.19933669  0.52497620     0.25000
C2746       C  0.47297946  0.18803339  0.52667028    -0.23110
C2747       C  0.47664135  0.15801593  0.52204911     0.19900
C2748       C  0.45317231  0.14095632  0.51173224     0.24940
C2749       C  0.42515977  0.15314453  0.50859201    -0.23050
C2750       C  0.42084501  0.18158049  0.51886793     0.19840
F2751       F  0.39367200  0.19338059  0.52003837    -0.13010
F2752       F  0.43982947  0.22816223  0.52512534    -0.15380
F2753       F  0.45833701  0.11341474  0.50299666    -0.15380
F2754       F  0.50351767  0.14591945  0.52474924    -0.13010
C2755       C  0.45798836  0.25275320  0.57649523     0.25000
C2756       C  0.47906408  0.23054560  0.57456587    -0.23110
C2757       C  0.47726590  0.20758229  0.59440540     0.19900
C2758       C  0.45383297  0.20591057  0.61404065     0.24940
C2759       C  0.43267292  0.22791451  0.61514394    -0.23050
C2760       C  0.43612581  0.25209882  0.59736505     0.19840
F2761       F  0.41526083  0.27298794  0.59693561    -0.13010
F2762       F  0.45523638  0.27269088  0.55538348    -0.15380
F2763       F  0.45046955  0.18179803  0.63024646    -0.15380
F2764       F  0.49690014  0.18565676  0.59317383    -0.13010
C2765       C  0.68747932  0.23763487  0.32798992     0.25000
C2766       C  0.67773323  0.25323145  0.35235779    -0.23110
C2767       C  0.69409316  0.27758685  0.36137256     0.19900
C2768       C  0.71904739  0.28629061  0.34554405     0.24940
C2769       C  0.72657945  0.27189248  0.31963648    -0.23050
C2770       C  0.70932089  0.24849619  0.31057134     0.19840
F2771       F  0.71292770  0.23639644  0.28407236    -0.13010
F2772       F  0.67395994  0.21281947  0.31942696    -0.15380
F2773       F  0.73502437  0.30929754  0.35475419    -0.15380
F2774       F  0.68536470  0.29349742  0.38450586    -0.13010
C2775       C  0.60683986  0.22327888  0.45227584     0.25000
C2776       C  0.59572876  0.23676748  0.42733081    -0.23110
C2777       C  0.56755665  0.24919660  0.42846681     0.19900
C2778       C  0.54989556  0.24573933  0.45265564     0.24940
C2779       C  0.56061937  0.23184621  0.47736173    -0.23050
C2780       C  0.58951164  0.22128658  0.47735166     0.19840
F2781       F  0.60043493  0.20809035  0.50121829    -0.13010
F2782       F  0.63370064  0.21087088  0.45191355    -0.15380
F2783       F  0.52203938  0.25584628  0.45185333    -0.15380
F2784       F  0.55654659  0.26375556  0.40539427    -0.13010
C2785       C  0.67284827  0.32694474  0.26401661     0.25000
C2786       C  0.67188953  0.35538658  0.27513548    -0.23110
C2787       C  0.69773259  0.36691083  0.28733515     0.19900
C2788       C  0.72343690  0.34981424  0.28903332     0.24940
C2789       C  0.72323783  0.32062730  0.27983896    -0.23050
C2790       C  0.69724055  0.30952938  0.26790699     0.19840
F2791       F  0.69517047  0.28160660  0.25941928    -0.13010
F2792       F  0.64936889  0.31535515  0.24998550    -0.15380
F2793       F  0.74822293  0.36142231  0.30042233    -0.15380
F2794       F  0.69789360  0.39414370  0.29831881    -0.13010
C2795       C  0.31263832  0.15759407  0.25359745     0.25000
C2796       C  0.31741295  0.13730621  0.23160979    -0.23110
C2797       C  0.29656742  0.13424300  0.20931693     0.19900
C2798       C  0.27165407  0.15202643  0.20865342     0.24940
C2799       C  0.26783502  0.17378850  0.22969294    -0.23050
C2800       C  0.28866988  0.17604596  0.25229927     0.19840
F2801       F  0.28898026  0.19919020  0.27025922    -0.13010
F2802       F  0.33337418  0.16217882  0.27430968    -0.15380
F2803       F  0.25235951  0.14942878  0.18637691    -0.15380
F2804       F  0.30138648  0.11543315  0.18721946    -0.13010
C2805       C  0.52041930  0.14975586  0.44552349     0.25000
C2806       C  0.49422592  0.15516434  0.43028441    -0.23110
C2807       C  0.47675263  0.17864879  0.43920056     0.19900
C2808       C  0.48569091  0.19685576  0.46175876     0.24940
C2809       C  0.51146817  0.19122615  0.47741700    -0.23050
C2810       C  0.52885722  0.16753120  0.46902784     0.19840
F2811       F  0.55381004  0.16146290  0.48378027    -0.13010
F2812       F  0.53833772  0.12798610  0.43704290    -0.15380
F2813       F  0.46896636  0.22014033  0.46846886    -0.15380
F2814       F  0.45102766  0.18436153  0.42556458    -0.13010
C2815       C  0.32328746  0.22423396  0.17598563     0.25000
C2816       C  0.31882767  0.23418338  0.14749938    -0.23110
C2817       C  0.29094537  0.23022105  0.13508031     0.19900
C2818       C  0.26767299  0.21984892  0.15219430     0.24940
C2819       C  0.27119017  0.21702857  0.18256942    -0.23050
C2820       C  0.29959310  0.21980329  0.19395832     0.19840
F2821       F  0.30424592  0.22334506  0.22267118    -0.13010
F2822       F  0.35047943  0.22352294  0.18800908    -0.15380
F2823       F  0.24098238  0.21598342  0.13982224    -0.15380
F2824       F  0.28565191  0.23832943  0.10737904    -0.13010
C2825       C  0.16667248  0.47617887  0.54156966     0.25000
C2826       C  0.19017510  0.47930916  0.52229647    -0.23110
C2827       C  0.19361813  0.45860155  0.50010814     0.19900
C2828       C  0.17456887  0.43488999  0.49782932     0.24940
C2829       C  0.15162384  0.43120807  0.51769313    -0.23050
C2830       C  0.14761889  0.45236929  0.53930346     0.19840
F2831       F  0.12643438  0.44888702  0.55945628    -0.13010
F2832       F  0.16256873  0.49591828  0.56298793    -0.15380
F2833       F  0.17994600  0.41417772  0.47761533    -0.15380
F2834       F  0.21635058  0.46058694  0.48144754    -0.13010
C2835       C  0.22960193  0.47390836  0.59393919     0.25000
C2836       C  0.23781503  0.47667511  0.56466889    -0.23110
C2837       C  0.25551363  0.45550431  0.55241601     0.19900
C2838       C  0.26882672  0.43501199  0.56977966     0.24940
C2839       C  0.25909742  0.42986173  0.59844597    -0.23050
C2840       C  0.23899705  0.44979521  0.61034674     0.19840
F2841       F  0.22839200  0.44608591  0.63742626    -0.13010
F2842       F  0.21222352  0.49416174  0.60634984    -0.15380
F2843       F  0.29164180  0.42017062  0.55820511    -0.15380
F2844       F  0.26233716  0.45643497  0.52383040    -0.13010
C2845       C  0.24851103  0.67952943  0.32087860     0.25000
C2846       C  0.26226627  0.67860522  0.34829590    -0.23110
C2847       C  0.27781795  0.70305591  0.35799014     0.19900
C2848       C  0.28039337  0.72744060  0.34002767     0.24940
C2849       C  0.26840659  0.72715305  0.31186113    -0.23050
C2850       C  0.25261396  0.70288361  0.30251246     0.19840
F2851       F  0.24134656  0.70159026  0.27530516    -0.13010
F2852       F  0.23236468  0.65677812  0.31112231    -0.15380
F2853       F  0.29539365  0.75092446  0.34965913    -0.15380
F2854       F  0.29165440  0.70277467  0.38403706    -0.13010
C2855       C  0.27097358  0.58312021  0.43946862     0.25000
C2856       C  0.25067753  0.60396678  0.43045385    -0.23110
C2857       C  0.22513576  0.60780369  0.44708763     0.19900
C2858       C  0.22010389  0.59039858  0.47180512     0.24940
C2859       C  0.23946642  0.56766974  0.47883194    -0.23050
C2860       C  0.26398124  0.56366961  0.46096214     0.19840
F2861       F  0.27970096  0.53897374  0.46185394    -0.13010
F2862       F  0.29617778  0.57887963  0.42453538    -0.15380
F2863       F  0.19565463  0.59461362  0.48777801    -0.15380
F2864       F  0.20456107  0.62713837  0.43866349    -0.13010
C2865       C  0.29995089  0.70962558  0.23931494     0.25000
C2866       C  0.30856121  0.72729456  0.26259698    -0.23110
C2867       C  0.33513295  0.72156371  0.27687198     0.19900
C2868       C  0.35281830  0.69835448  0.26784845     0.24940
C2869       C  0.34437550  0.68109404  0.24398042    -0.23050
C2870       C  0.31802467  0.68756147  0.22948291     0.19840
F2871       F  0.30946911  0.67209222  0.20582281    -0.13010
F2872       F  0.27389704  0.71393672  0.22583767    -0.15380
F2873       F  0.37751741  0.69219437  0.28298642    -0.15380
F2874       F  0.34384291  0.73838317  0.29947300    -0.13010
C2875       C  0.16131451  0.52317893  0.47865817     0.25000
C2876       C  0.19223444  0.52342296  0.47758171    -0.23110
C2877       C  0.20515083  0.52056954  0.45055452     0.19900
C2878       C  0.18894826  0.52465047  0.42575918     0.24940
C2879       C  0.15827688  0.51961090  0.42545477    -0.23050
C2880       C  0.14453213  0.51922601  0.45296616     0.19840
F2881       F  0.11523067  0.51591452  0.45541175    -0.13010
F2882       F  0.14743315  0.52594150  0.50439379    -0.15380
F2883       F  0.20384054  0.53549785  0.40289068    -0.15380
F2884       F  0.23375093  0.51383710  0.44783395    -0.13010
C2885       C  0.19832409  0.29316058  0.23811491     0.25000
C2886       C  0.18467788  0.26911010  0.22578543    -0.23110
C2887       C  0.15390939  0.26954020  0.22239359     0.19900
C2888       C  0.13743280  0.29414920  0.23080186     0.24940
C2889       C  0.15127873  0.31746408  0.24512105    -0.23050
C2890       C  0.18181750  0.31491901  0.25058579     0.19840
F2891       F  0.19615226  0.33350812  0.26863866    -0.13010
F2892       F  0.22785465  0.29413617  0.24112757    -0.15380
F2893       F  0.10832690  0.29494732  0.22515864    -0.15380
F2894       F  0.13997110  0.24623677  0.21093553    -0.13010
C2895       C  0.25754908  0.30328936  0.16151730     0.25000
C2896       C  0.23548890  0.31049210  0.14143556    -0.23110
C2897       C  0.21025349  0.29314505  0.14001282     0.19900
C2898       C  0.20684515  0.26961181  0.15893012     0.24940
C2899       C  0.22821333  0.26360386  0.18016579    -0.23050
C2900       C  0.25349112  0.28096383  0.18128182     0.19840
F2901       F  0.27367585  0.27731917  0.20259136    -0.13010
F2902       F  0.28172774  0.32020251  0.16416866    -0.15380
F2903       F  0.18222170  0.25331091  0.15725515    -0.15380
F2904       F  0.18804803  0.30027346  0.12182457    -0.13010
C2905       C  0.47905298  0.60060368  0.20671353     0.25000
C2906       C  0.48334028  0.58099835  0.22960895    -0.23110
C2907       C  0.46384666  0.58207632  0.25317019     0.19900
C2908       C  0.44089209  0.60170902  0.25377068     0.24940
C2909       C  0.43446452  0.61842701  0.22937576    -0.23050
C2910       C  0.45422615  0.61855926  0.20617734     0.19840
F2911       F  0.44804338  0.63394558  0.18200076    -0.13010
F2912       F  0.49728671  0.60028807  0.18362822    -0.15380
F2913       F  0.42152437  0.60035221  0.27595751    -0.15380
F2914       F  0.46328591  0.56069432  0.27297227    -0.13010
C2915       C  0.47978557  0.53212509  0.15343349     0.25000
C2916       C  0.47691909  0.53601342  0.18377479    -0.23110
C2917       C  0.44860449  0.53450951  0.19542580     0.19900
C2918       C  0.42451260  0.52888507  0.17783287     0.24940
C2919       C  0.42829887  0.51841500  0.14935648    -0.23050
C2920       C  0.45595577  0.52183205  0.13663968     0.19840
F2921       F  0.46052539  0.51299129  0.10898460    -0.13010
F2922       F  0.50635009  0.53493592  0.14081088    -0.15380
F2923       F  0.39763550  0.52890823  0.19024093    -0.15380
F2924       F  0.44437047  0.53380543  0.22438924    -0.13010
C2925       C  0.54054779  0.48057346  0.16121695     0.25000
C2926       C  0.51871272  0.48801998  0.18139888    -0.23110
C2927       C  0.49305366  0.47120063  0.18210697     0.19900
C2928       C  0.48926277  0.44780818  0.16321617     0.24940
C2929       C  0.51177870  0.43918440  0.14439244    -0.23050
C2930       C  0.53732647  0.45605877  0.14323532     0.19840
F2931       F  0.55994857  0.44760158  0.12629729    -0.13010
F2932       F  0.56557221  0.49627295  0.15993776    -0.15380
F2933       F  0.46479423  0.43135332  0.16566084    -0.15380
F2934       F  0.47235910  0.47618427  0.20247972    -0.13010
C2935       C  0.59181917  0.47886564  0.22484259     0.25000
C2936       C  0.56115839  0.48111234  0.22766691    -0.23110
C2937       C  0.54594718  0.45777710  0.23919476     0.19900
C2938       C  0.56093857  0.43497234  0.25166584     0.24940
C2939       C  0.59144042  0.43081929  0.24723022    -0.23050
C2940       C  0.60670689  0.45339303  0.23334773     0.19840
F2941       F  0.63581269  0.45128854  0.22839954    -0.13010
F2942       F  0.60726103  0.50134157  0.21401843    -0.15380
F2943       F  0.54530168  0.41798426  0.26985276    -0.15380
F2944       F  0.51643232  0.45886787  0.24214419    -0.13010
C2945       C  0.48862897  0.30659248  0.04944314     0.25000
C2946       C  0.47355772  0.31885108  0.02612196    -0.23110
C2947       C  0.46592634  0.34834748  0.02777858     0.19900
C2948       C  0.47320414  0.36504636  0.05258842     0.24940
C2949       C  0.48983570  0.35288771  0.07529923    -0.23050
C2950       C  0.49862235  0.32369412  0.07223276     0.19840
F2951       F  0.51810547  0.31159850  0.09089066    -0.13010
F2952       F  0.49766467  0.27869794  0.04814966    -0.15380
F2953       F  0.46387792  0.39279179  0.05433077    -0.15380
F2954       F  0.45157293  0.36090502  0.00538458    -0.13010
C2955       C  0.40512568  0.28864062  0.02430241     0.25000
C2956       C  0.43079356  0.27203787  0.02218433    -0.23110
C2957       C  0.43643331  0.25124676  0.04368001     0.19900
C2958       C  0.41721103  0.24746093  0.06680019     0.24940
C2959       C  0.39214310  0.26474973  0.06951816    -0.23050
C2960       C  0.38606638  0.28517777  0.04788128     0.19840
F2961       F  0.36270396  0.30302111  0.05058889    -0.13010
F2962       F  0.39912528  0.30895650  0.00407160    -0.15380
F2963       F  0.42431571  0.22841674  0.08795989    -0.15380
F2964       F  0.46151145  0.23572265  0.04346853    -0.13010
C2965       C  0.51150156  0.27975228  0.90105929     0.25000
C2966       C  0.51824850  0.28648746  0.93036980    -0.23110
C2967       C  0.54802831  0.28956411  0.93772512     0.19900
C2968       C  0.56966586  0.28606548  0.91696790     0.24940
C2969       C  0.56309447  0.27177550  0.89071509    -0.23050
C2970       C  0.53368523  0.27047046  0.88196707     0.19840
F2971       F  0.52629001  0.25778487  0.85641521    -0.13010
F2972       F  0.48320685  0.27826701  0.89220150    -0.15380
F2973       F  0.59796558  0.29007778  0.92520022    -0.15380
F2974       F  0.55702266  0.29054631  0.96560552    -0.13010
C2975       C  0.55637692  0.35026274  0.00410183     0.25000
C2976       C  0.56136334  0.36922041  0.98109486    -0.23110
C2977       C  0.54087645  0.37027274  0.95828812     0.19900
C2978       C  0.51673466  0.35126682  0.95783136     0.24940
C2979       C  0.51398551  0.32976346  0.97914448    -0.23050
C2980       C  0.53451638  0.32951216  0.00204278     0.19840
F2981       F  0.53741998  0.30594817  0.01901812    -0.13010
F2982       F  0.57637271  0.34803167  0.02586220    -0.15380
F2983       F  0.49771446  0.35199556  0.93521216    -0.15380
F2984       F  0.54565207  0.38780012  0.93535361    -0.13010
C2985       C  0.40280724  0.02395351  0.28302517     0.25000
C2986       C  0.43361210  0.02509296  0.28521544    -0.23110
C2987       C  0.44720756  0.05207135  0.28120412     0.19900
C2988       C  0.43093359  0.07617881  0.27325774     0.24940
C2989       C  0.40162653  0.07313630  0.26381203    -0.23050
C2990       C  0.38719391  0.04706950  0.27065488     0.19840
F2991       F  0.35881813  0.04272485  0.26318636    -0.13010
F2992       F  0.38851430  0.99891529  0.28863089    -0.15380
F2993       F  0.44485414  0.10209755  0.27266613    -0.15380
F2994       F  0.47669654  0.05450452  0.28035171    -0.13010
C2995       C  0.45781452  0.02275573  0.34796004     0.25000
C2996       C  0.48020353  0.01641283  0.32799125    -0.23110
C2997       C  0.50535877  0.03416056  0.32814097     0.19900
C2998       C  0.50689594  0.05869697  0.34593952     0.24940
C2999       C  0.48315459  0.06664296  0.36346339    -0.23050
C3000       C  0.45906939  0.04789212  0.36517245     0.19840
F3001       F  0.43555519  0.05536994  0.38136723    -0.13010
F3002       F  0.43357983  0.00585682  0.34897792    -0.15380
F3003       F  0.53005871  0.07685256  0.34323111    -0.15380
F3004       F  0.52671691  0.03019358  0.30822828    -0.13010
C3005       C  0.54913913  0.97474312  0.36471911     0.25000
C3006       C  0.57641636  0.97358457  0.35047604    -0.23110
C3007       C  0.57575430  0.96605072  0.32073778     0.19900
C3008       C  0.55075020  0.97058897  0.30469754     0.24940
C3009       C  0.52340736  0.97010438  0.31806123    -0.23050
C3010       C  0.52294879  0.97047228  0.34877303     0.19840
F3011       F  0.49720790  0.96888326  0.36314913    -0.13010
F3012       F  0.54743021  0.98036103  0.39348044    -0.15380
F3013       F  0.55379833  0.97710250  0.27631926    -0.15380
F3014       F  0.59954736  0.95581128  0.30645046    -0.13010
C3015       C  0.53020594  0.93878720  0.23787412     0.25000
C3016       C  0.51735895  0.93295753  0.26498438    -0.23110
C3017       C  0.52993506  0.91118307  0.28228337     0.19900
C3018       C  0.55591297  0.89726025  0.27361569     0.24940
C3019       C  0.56946877  0.90451074  0.24727650    -0.23050
C3020       C  0.55563070  0.92459574  0.22910843     0.19840
F3021       F  0.56773915  0.93172434  0.20332330    -0.13010
F3022       F  0.51986221  0.96051310  0.22109309    -0.15380
F3023       F  0.56883261  0.87818983  0.29183589    -0.15380
F3024       F  0.51799294  0.90463196  0.30826593    -0.13010
C3025       C  0.55379076  0.79887263  0.02897964     0.25000
C3026       C  0.56539490  0.77166440  0.03610190    -0.23110
C3027       C  0.59611928  0.76925353  0.03879505     0.19900
C3028       C  0.61464262  0.79324771  0.03419267     0.24940
C3029       C  0.60299467  0.82023954  0.02632825    -0.23050
C3030       C  0.57222116  0.82237703  0.02325450     0.19840
F3031       F  0.55977726  0.84725736  0.01379304    -0.13010
F3032       F  0.52458385  0.80212986  0.02476034    -0.15380
F3033       F  0.64391814  0.79017061  0.03788553    -0.15380
F3034       F  0.60822633  0.74334534  0.04535921    -0.13010
C3035       C  0.67918280  0.91378629  0.97137772     0.25000
C3036       C  0.68449419  0.88718286  0.98522366    -0.23110
C3037       C  0.71349215  0.87716565  0.98572845     0.19900
C3038       C  0.73648549  0.89507999  0.97584394     0.24940
C3039       C  0.73135720  0.92468169  0.96954759    -0.23050
C3040       C  0.70193385  0.93347214  0.96768956     0.19840
F3041       F  0.69462851  0.96173556  0.96712099    -0.13010
F3042       F  0.65132359  0.92342094  0.96802697    -0.15380
F3043       F  0.76411646  0.88446935  0.97558203    -0.15380
F3044       F  0.71984343  0.85130514  0.99787780    -0.13010
C3045       C  0.60801262  0.02187323  0.80640214     0.25000
C3046       C  0.60178799  0.99434056  0.81763441    -0.23110
C3047       C  0.57824184  0.97859962  0.80574998     0.19900
C3048       C  0.56093202  0.99024308  0.78369100     0.24940
C3049       C  0.56708131  0.01771518  0.77225609    -0.23050
C3050       C  0.59084257  0.03344411  0.78388284     0.19840
F3051       F  0.59750012  0.05991202  0.77330037    -0.13010
F3052       F  0.62980891  0.03811119  0.81815210    -0.15380
F3053       F  0.53762418  0.97483680  0.77380225    -0.15380
F3054       F  0.57135706  0.95215465  0.81633694    -0.13010
C3055       C  0.69384561  0.99780350  0.90455519     0.25000
C3056       C  0.68753668  0.97489247  0.88556783    -0.23110
C3057       C  0.70676799  0.95120228  0.88442349     0.19900
C3058       C  0.73116864  0.94997622  0.90316490     0.24940
C3059       C  0.73549384  0.97156872  0.92437615    -0.23050
C3060       C  0.71614357  0.99525524  0.92486944     0.19840
F3061       F  0.71524375  0.01319324  0.94808751    -0.13010
F3062       F  0.67495657  0.02033991  0.90700836    -0.15380
F3063       F  0.74908817  0.92665563  0.90225617    -0.15380
F3064       F  0.70057324  0.92832622  0.86695177    -0.13010
C3065       C  0.47734378  0.79905820  0.09177083     0.25000
C3066       C  0.49571262  0.80835899  0.11450039    -0.23110
C3067       C  0.52297493  0.79466736  0.11809062     0.19900
C3068       C  0.53208007  0.77291835  0.09874619     0.24940
C3069       C  0.51412865  0.76452759  0.07533274    -0.23050
C3070       C  0.48658342  0.77781370  0.07220374     0.19840
F3071       F  0.46917329  0.77117704  0.04920820    -0.13010
F3072       F  0.45193840  0.81327201  0.08641182    -0.15380
F3073       F  0.55863959  0.76041830  0.10252924    -0.15380
F3074       F  0.54188965  0.80426451  0.13874737    -0.13010
C3075       C  0.47147775  0.88293176  0.21282995     0.25000
C3076       C  0.46778549  0.89311495  0.18435832    -0.23110
C3077       C  0.45678772  0.92146845  0.18126676     0.19900
C3078       C  0.45946495  0.94123957  0.20381721     0.24940
C3079       C  0.46323762  0.93195950  0.23254256    -0.23050
C3080       C  0.46703735  0.90177015  0.23673222     0.19840
F3081       F  0.46926078  0.89101086  0.26391179    -0.13010
F3082       F  0.48076226  0.85555855  0.21762740    -0.15380
F3083       F  0.46232722  0.96931449  0.19641653    -0.15380
F3084       F  0.44764040  0.93147260  0.15511695    -0.13010
C3085       C  0.51660034  0.07226182  0.82988621     0.25000
C3086       C  0.52669958  0.10110746  0.83218675    -0.23110
C3087       C  0.53783173  0.11425958  0.80710560     0.19900
C3088       C  0.53935968  0.09870027  0.78076555     0.24940
C3089       C  0.53064330  0.06948269  0.77921334    -0.23050
C3090       C  0.51972196  0.05643324  0.80428908     0.19840
F3091       F  0.51007726  0.02868041  0.80347844    -0.13010
F3092       F  0.50315132  0.05925357  0.85251570    -0.15380
F3093       F  0.54975658  0.11198941  0.75681962    -0.15380
F3094       F  0.54793963  0.14180241  0.80821165    -0.13010
C3095       C  0.51569812  0.22101945  0.94271554     0.25000
C3096       C  0.48757919  0.23230034  0.93778759    -0.23110
C3097       C  0.46986932  0.21921700  0.91629963     0.19900
C3098       C  0.47992706  0.19489059  0.90071687     0.24940
C3099       C  0.50808892  0.18371168  0.90592371    -0.23050
C3100       C  0.52610657  0.19779948  0.92641771     0.19840
F3101       F  0.55333827  0.18755986  0.93218518    -0.13010
F3102       F  0.53289883  0.23199325  0.96415700    -0.15380
F3103       F  0.46161118  0.18132479  0.88184694    -0.15380
F3104       F  0.44277217  0.22975899  0.91069478    -0.13010
C3105       C  0.27818506  0.04208544  0.09251577     0.25000
C3106       C  0.26939186  0.02209171  0.07103591    -0.23110
C3107       C  0.28578912  0.99656863  0.06751810     0.19900
C3108       C  0.31084784  0.99166384  0.08425258     0.24940
C3109       C  0.32026510  0.01211077  0.10491029    -0.23050
C3110       C  0.30336582  0.03708886  0.10937798     0.19840
F3111       F  0.31217568  0.05739285  0.12886401    -0.13010
F3112       F  0.26280138  0.06682220  0.09654757    -0.15380
F3113       F  0.32675021  0.96736425  0.07942459    -0.15380
F3114       F  0.27866604  0.97720654  0.04644749    -0.13010
C3115       C  0.38448618  0.97388251  0.20651660     0.25000
C3116       C  0.38977523  0.99908760  0.19047789    -0.23110
C3117       C  0.41118354  0.01862431  0.20022534     0.19900
C3118       C  0.43019239  0.01093376  0.22234807     0.24940
C3119       C  0.42586104  0.98530359  0.23811972    -0.23050
C3120       C  0.40195017  0.96743489  0.23081385     0.19840
F3121       F  0.39708031  0.94273481  0.24571022    -0.13010
F3122       F  0.36436105  0.95436890  0.19712959    -0.15380
F3123       F  0.45476321  0.02697906  0.22628019    -0.15380
F3124       F  0.41675753  0.04308389  0.18506984    -0.13010
C3125       C  0.27805534  0.09811476  0.03331449     0.25000
C3126       C  0.27663085  0.06786731  0.02915437    -0.23110
C3127       C  0.30086587  0.05363397  0.01777980     0.19900
C3128       C  0.32402664  0.06928173  0.00695058     0.24940
C3129       C  0.32743041  0.09913699  0.01325720    -0.23050
C3130       C  0.30387393  0.11353049  0.02658171     0.19840
F3131       F  0.30565815  0.14211212  0.03292622    -0.13010
F3132       F  0.25455273  0.11252903  0.04384178    -0.15380
F3133       F  0.34327930  0.05482651  0.98982721    -0.15380
F3134       F  0.30053329  0.02459072  0.01347218    -0.13010
C3135       C  0.43594547  0.17910737  0.99667723     0.25000
C3136       C  0.40676932  0.17581641  0.98662862    -0.23110
C3137       C  0.39322671  0.19975836  0.97350621     0.19900
C3138       C  0.40885847  0.22583522  0.96991515     0.24940
C3139       C  0.43851797  0.22791543  0.97826036    -0.23050
C3140       C  0.45188045  0.20406563  0.99117440     0.19840
F3141       F  0.48038959  0.20528839  0.99949812    -0.13010
F3142       F  0.44932315  0.15799065  0.01217584    -0.15380
F3143       F  0.39531025  0.24886094  0.95775060    -0.15380
F3144       F  0.36533345  0.19778003  0.96356826    -0.13010
C3145       C  0.29311341  0.54760444  0.89515808     0.25000
C3146       C  0.27410522  0.57108202  0.89931267    -0.23110
C3147       C  0.25323606  0.56973406  0.92140993     0.19900
C3148       C  0.25374826  0.54745273  0.94120380     0.24940
C3149       C  0.27209024  0.52347200  0.93720216    -0.23050
C3150       C  0.29151249  0.52346592  0.91359225     0.19840
F3151       F  0.30994680  0.50088790  0.90946720    -0.13010
F3152       F  0.31399410  0.54871565  0.87444355    -0.15380
F3153       F  0.23786449  0.55097046  0.96552594    -0.15380
F3154       F  0.23463346  0.59216800  0.92609041    -0.13010
C3155       C  0.34299013  0.52053381  0.98515863     0.25000
C3156       C  0.31235493  0.52289070  0.98681871    -0.23110
C3157       C  0.30051064  0.54850332  0.99754067     0.19900
C3158       C  0.31812286  0.57220971  0.00316658     0.24940
C3159       C  0.34888561  0.56913562  0.00599499    -0.23050
C3160       C  0.36112233  0.54270422  0.99625475     0.19840
F3161       F  0.39024690  0.53764333  0.99800811    -0.13010
F3162       F  0.35531991  0.49615744  0.97435116    -0.15380
F3163       F  0.30438164  0.59808001  0.00554978    -0.15380
F3164       F  0.27199424  0.55007721  0.00497222    -0.13010
C3165       C  0.35775885  0.46814112  0.05164927     0.25000
C3166       C  0.35007220  0.48573039  0.07531007    -0.23110
C3167       C  0.32252897  0.49937165  0.07504235     0.19900
C3168       C  0.30303531  0.49526398  0.05183154     0.24940
C3169       C  0.31058777  0.47744617  0.02828600    -0.23050
C3170       C  0.33823944  0.46408677  0.02832904     0.19840
F3171       F  0.34634761  0.44710286  0.00573112    -0.13010
F3172       F  0.38364875  0.45384402  0.05176725    -0.15380
F3173       F  0.27660457  0.50856963  0.05238725    -0.15380
F3174       F  0.31405027  0.51576592  0.09798058    -0.13010
C3175       C  0.27341703  0.39025338  0.05190167     0.25000
C3176       C  0.24791879  0.39399138  0.06838072    -0.23110
C3177       C  0.22960471  0.41770809  0.06226564     0.19900
C3178       C  0.23783229  0.43849478  0.04222970     0.24940
C3179       C  0.26294518  0.43468151  0.02531393    -0.23050
C3180       C  0.28054601  0.41014435  0.03005479     0.19840
F3181       F  0.30444514  0.40537614  0.01346373    -0.13010
F3182       F  0.29205603  0.36827672  0.05789816    -0.15380
F3183       F  0.22108363  0.46249677  0.03920037    -0.15380
F3184       F  0.20476151  0.42202487  0.07771523    -0.13010
C3185       C  0.98759597  0.54865234  0.30369844     0.25000
C3186       C  0.97568455  0.52448755  0.31718906    -0.23110
C3187       C  0.97159388  0.52560494  0.34749353     0.19900
C3188       C  0.97916959  0.55075797  0.36366114     0.24940
C3189       C  0.99344155  0.57419784  0.35013090    -0.23050
C3190       C  0.99928168  0.57111703  0.32001393     0.19840
F3191       F  0.01820086  0.58882079  0.30603012    -0.13010
F3192       F  0.99173576  0.54885504  0.27461474    -0.15380
F3193       F  0.97296642  0.55172256  0.39230922    -0.15380
F3194       F  0.96026449  0.50242024  0.36133664    -0.13010
C3195       C  0.91424249  0.56128362  0.24462087     0.25000
C3196       C  0.89410835  0.56881699  0.26634105    -0.23110
C3197       C  0.89152902  0.55074164  0.29055331     0.19900
C3198       C  0.90950338  0.52616510  0.29334436     0.24940
C3199       C  0.93113053  0.51993004  0.27252842    -0.23050
C3200       C  0.93326686  0.53802834  0.24822843     0.19840
F3201       F  0.95514511  0.53444807  0.22880994    -0.13010
F3202       F  0.91794040  0.57878864  0.22140629    -0.15380
F3203       F  0.90678861  0.50921247  0.31704438    -0.15380
F3204       F  0.87317978  0.55802698  0.31239517    -0.13010
C3205       C  0.03988461  0.50794191  0.31043497     0.25000
C3206       C  0.02291052  0.48424404  0.31892044    -0.23110
C3207       C  0.02984943  0.47051065  0.34520840     0.19900
C3208       C  0.05419830  0.47986905  0.36180702     0.24940
C3209       C  0.07028766  0.50444007  0.35339268    -0.23050
C3210       C  0.06073778  0.51976634  0.32889036     0.19840
F3211       F  0.07468430  0.54428635  0.32058436    -0.13010
F3212       F  0.03683228  0.51937071  0.28364599    -0.15380
F3213       F  0.06302707  0.46407295  0.38489605    -0.15380
F3214       F  0.01402380  0.44739630  0.35398276    -0.13010
C3215       C  0.04982775  0.44267169  0.26803163     0.25000
C3216       C  0.02382504  0.43301926  0.28053946    -0.23110
C3217       C  0.02224990  0.40393350  0.28963197     0.19900
C3218       C  0.04677298  0.38533591  0.28703110     0.24940
C3219       C  0.07257935  0.39517381  0.27377787    -0.23050
C3220       C  0.07277018  0.42370245  0.26284897     0.19840
F3221       F  0.09595391  0.43374693  0.24757513    -0.13010
F3222       F  0.05249197  0.47035123  0.25893652    -0.15380
F3223       F  0.04551813  0.35825598  0.29800164    -0.15380
F3224       F  0.99724768  0.39382254  0.30158393    -0.13010
C3225       C  0.89427872  0.69967937  0.97301995     0.25000
C3226       C  0.90589438  0.67297853  0.98164483    -0.23110
C3227       C  0.93557939  0.67154361  0.98984232     0.19900
C3228       C  0.95369756  0.69558938  0.98758260     0.24940
C3229       C  0.94236855  0.72232119  0.97863886    -0.23050
C3230       C  0.91234373  0.72427204  0.97184005     0.19840
F3231       F  0.90071969  0.74991488  0.96359440    -0.13010
F3232       F  0.86584743  0.70168336  0.96473949    -0.15380
F3233       F  0.98219701  0.69295701  0.99546097    -0.15380
F3234       F  0.94727594  0.64641346  0.99958604    -0.13010
C3235       C  0.83269953  0.57040461  0.02320462     0.25000
C3236       C  0.82933740  0.59859201  0.01224306    -0.23110
C3237       C  0.80198320  0.61202672  0.01543759     0.19900
C3238       C  0.77795476  0.59609286  0.02583487     0.24940
C3239       C  0.78027756  0.56588365  0.02995831    -0.23050
C3240       C  0.80831104  0.55353082  0.02889656     0.19840
F3241       F  0.81201158  0.52456277  0.02851199    -0.13010
F3242       F  0.85941600  0.55760026  0.02417163    -0.15380
F3243       F  0.75158793  0.60927843  0.02823555    -0.15380
F3244       F  0.79782909  0.63948656  0.00620101    -0.13010
C3245       C  0.02962036  0.68751862  0.93146778     0.25000
C3246       C  0.01241444  0.67751850  0.90813247    -0.23110
C3247       C  0.98623430  0.69214056  0.90153766     0.19900
C3248       C  0.97731719  0.71601519  0.91830390     0.24940
C3249       C  0.99433320  0.72551003  0.94202418    -0.23050
C3250       C  0.02045188  0.71077437  0.94847030     0.19840
F3251       F  0.03669842  0.71836667  0.97198995    -0.13010
F3252       F  0.05509241  0.67409000  0.93837763    -0.15380
F3253       F  0.95201157  0.72975470  0.91155004    -0.15380
F3254       F  0.96864050  0.68250664  0.87978752    -0.13010
C3255       C  0.04555304  0.59308383  0.77662460     0.25000
C3256       C  0.02144050  0.57475403  0.77133523    -0.23110
C3257       C  0.99782868  0.57569186  0.79085783     0.19900
C3258       C  0.99864557  0.59363954  0.81516789     0.24940
C3259       C  0.02373484  0.60985700  0.82174668    -0.23050
C3260       C  0.04692755  0.61010926  0.80193139     0.19840
F3261       F  0.07179589  0.62490457  0.80826720    -0.13010
F3262       F  0.06875615  0.59271807  0.75842702    -0.15380
F3263       F  0.97647347  0.59207742  0.83457890    -0.15380
F3264       F  0.97594823  0.55607397  0.78923880    -0.13010
C3265       C  0.09308744  0.52168627  0.77566038     0.25000
C3266       C  0.06249305  0.52579366  0.77655251    -0.23110
C3267       C  0.04837685  0.52091182  0.80304283     0.19900
C3268       C  0.06399926  0.51227895  0.82748253     0.24940
C3269       C  0.09337151  0.50289817  0.82529256    -0.23050
C3270       C  0.10804608  0.50886068  0.79910445     0.19840
F3271       F  0.13629167  0.50088815  0.79529315    -0.13010
F3272       F  0.10801208  0.52757431  0.75107894    -0.15380
F3273       F  0.04962430  0.51231924  0.85313784    -0.15380
F3274       F  0.01885182  0.52132793  0.80482422    -0.13010
C3275       C  0.22413657  0.45843706  0.91082575     0.25000
C3276       C  0.22566816  0.47973696  0.93271018    -0.23110
C3277       C  0.20308783  0.50054939  0.93381033     0.19900
C3278       C  0.18014091  0.50025738  0.91391392     0.24940
C3279       C  0.17759016  0.47795936  0.89355544    -0.23050
C3280       C  0.19996887  0.45719328  0.89177922     0.19840
F3281       F  0.19740825  0.43469284  0.87298299    -0.13010
F3282       F  0.24494830  0.43761759  0.90931829    -0.15380
F3283       F  0.15803917  0.51959684  0.91719872    -0.15380
F3284       F  0.20011612  0.51847863  0.95670074    -0.13010
C3285       C  0.81252666  0.49513205  0.09399102     0.25000
C3286       C  0.81842289  0.51832515  0.11267090    -0.23110
C3287       C  0.79883072  0.54166152  0.11384156     0.19900
C3288       C  0.77458783  0.54254573  0.09511265     0.24940
C3289       C  0.77036557  0.52065277  0.07426396    -0.23050
C3290       C  0.78936125  0.49663016  0.07441661     0.19840
F3291       F  0.78906777  0.47722886  0.05239184    -0.13010
F3292       F  0.83200901  0.47312034  0.09149501    -0.15380
F3293       F  0.75676309  0.56596409  0.09552115    -0.15380
F3294       F  0.80470359  0.56472190  0.13119271    -0.13010
C3295       C  0.89031098  0.48938748  0.20503404     0.25000
C3296       C  0.90461106  0.49376975  0.17829210    -0.23110
C3297       C  0.93404010  0.48463625  0.17635230     0.19900
C3298       C  0.95014130  0.47872988  0.20117800     0.24940
C3299       C  0.93637383  0.47497072  0.22799950    -0.23050
C3300       C  0.90571945  0.47825808  0.22900570     0.19840
F3301       F  0.89122836  0.47377249  0.25415065    -0.13010
F3302       F  0.86208427  0.49737114  0.20888393    -0.15380
F3303       F  0.97956658  0.48062343  0.19929439    -0.15380
F3304       F  0.94811051  0.48252642  0.15060784    -0.13010
C3305       C  0.00398918  0.42935234  0.21465914     0.25000
C3306       C  0.98029290  0.42856840  0.23421163    -0.23110
C3307       C  0.95808405  0.40800816  0.22920793     0.19900
C3308       C  0.95871574  0.39006732  0.20448068     0.24940
C3309       C  0.98198453  0.39178017  0.18474088    -0.23050
C3310       C  0.00501554  0.41088713  0.19066017     0.19840
F3311       F  0.02687490  0.41419407  0.17114292    -0.13010
F3312       F  0.02395559  0.45089265  0.21591284    -0.15380
F3313       F  0.93562288  0.37249682  0.19869828    -0.15380
F3314       F  0.93479651  0.40668983  0.24724198    -0.13010
C3315       C  0.19320738  0.44777085  0.98247898     0.25000
C3316       C  0.22109542  0.43596101  0.97846864    -0.23110
C3317       C  0.22416393  0.40568620  0.98053750     0.19900
C3318       C  0.20089105  0.38868900  0.99087117     0.24940
C3319       C  0.17317765  0.40124362  0.99557639    -0.23050
C3320       C  0.16923192  0.43020976  0.98707406     0.19840
F3321       F  0.14230805  0.44254695  0.98566176    -0.13010
F3322       F  0.18947834  0.47642257  0.98648384    -0.15380
F3323       F  0.20616288  0.36076525  0.99786051    -0.15380
F3324       F  0.25046981  0.39312706  0.97559419    -0.13010
C3325       C  0.27453180  0.02865866  0.41247862     0.25000
C3326       C  0.26770057  0.02701014  0.44216389    -0.23110
C3327       C  0.25107902  0.04899848  0.45460115     0.19900
C3328       C  0.23773979  0.06949328  0.43732184     0.24940
C3329       C  0.24587853  0.07314772  0.40797978    -0.23050
C3330       C  0.26478170  0.05232434  0.39573742     0.19840
F3331       F  0.27382938  0.05469781  0.36794999    -0.13010
F3332       F  0.29063126  0.00750268  0.39987252    -0.15380
F3333       F  0.21614985  0.08555008  0.44956577    -0.15380
F3334       F  0.24483576  0.04873950  0.48328568    -0.13010
C3335       C  0.33931543  0.02505224  0.46604840     0.25000
C3336       C  0.31491775  0.02360476  0.48438051    -0.23110
C3337       C  0.31031807  0.04606536  0.50451210     0.19900
C3338       C  0.32894025  0.07001980  0.50540160     0.24940
C3339       C  0.35249925  0.07216277  0.48612231    -0.23050
C3340       C  0.35794010  0.04921307  0.46685137     0.19840
F3341       F  0.38010296  0.05112066  0.44753118    -0.13010
F3342       F  0.34437622  0.00357460  0.44660601    -0.15380
F3343       F  0.32264327  0.09230064  0.52358402    -0.15380
F3344       F  0.28679584  0.04570271  0.52224152    -0.13010
C3345       C  0.28261718  0.90974150  0.52909685     0.25000
C3346       C  0.26606453  0.93528637  0.52650897    -0.23110
C3347       C  0.24323479  0.94013497  0.54604183     0.19900
C3348       C  0.23582638  0.91944912  0.56645565     0.24940
C3349       C  0.25353395  0.89489788  0.57081025    -0.23050
C3350       C  0.27690430  0.89002658  0.55165362     0.19840
F3351       F  0.29503884  0.86722573  0.55574574    -0.13010
F3352       F  0.30481902  0.90444345  0.51044909    -0.15380
F3353       F  0.21308743  0.92505684  0.58447201    -0.15380
F3354       F  0.22866274  0.96561532  0.54613393    -0.13010
C3355       C  0.32433533  0.99895942  0.57666973     0.25000
C3356       C  0.35397237  0.99074924  0.57444678    -0.23110
C3357       C  0.36322459  0.97745251  0.54859155     0.19900
C3358       C  0.34325208  0.97235421  0.52568444     0.24940
C3359       C  0.31346752  0.97971508  0.52846299    -0.23050
C3360       C  0.30434914  0.99310087  0.55426880     0.19840
F3361       F  0.27603603  0.00112287  0.55761938    -0.13010
F3362       F  0.31447340  0.01184500  0.60124455    -0.15380
F3363       F  0.35287209  0.95983516  0.50087473    -0.15380
F3364       F  0.39126446  0.96828668  0.54600450    -0.13010
C3365       C  0.02869727  0.92590030  0.69376336     0.25000
C3366       C  0.01166341  0.90247088  0.68388411    -0.23110
C3367       C  0.98471298  0.89698035  0.69740164     0.19900
C3368       C  0.97504998  0.91468109  0.72033035     0.24940
C3369       C  0.99221361  0.93811262  0.73009443    -0.23050
C3370       C  0.01893918  0.94367699  0.71622190     0.19840
F3371       F  0.03543319  0.96683914  0.72414420    -0.13010
F3372       F  0.05461947  0.93209093  0.68096838    -0.15380
F3373       F  0.94911378  0.90882939  0.73317730    -0.15380
F3374       F  0.96721747  0.87530745  0.68760423    -0.13010
C3375       C  0.04947540  0.79445894  0.61885593     0.25000
C3376       C  0.02650322  0.81464260  0.61850230    -0.23110
C3377       C  0.00197283  0.80890030  0.60116988     0.19900
C3378       C  0.00205332  0.78596691  0.58159058     0.24940
C3379       C  0.02505387  0.76555215  0.58113124    -0.23050
C3380       C  0.04831873  0.76963792  0.60096858     0.19840
F3381       F  0.07120675  0.75100880  0.60104515    -0.13010
F3382       F  0.07396258  0.79996639  0.63465207    -0.15380
F3383       F  0.98250700  0.78763965  0.55967714    -0.15380
F3384       F  0.98011766  0.82871370  0.59931217    -0.13010
C3385       C  0.93306311  0.98854880  0.67609529     0.25000
C3386       C  0.90347154  0.98011130  0.67752062    -0.23110
C3387       C  0.89213971  0.97087071  0.70407375     0.19900
C3388       C  0.91042164  0.96916219  0.72852949     0.24940
C3389       C  0.94039142  0.97591956  0.72649556    -0.23050
C3390       C  0.95147188  0.98563211  0.70000135     0.19840
F3391       F  0.98003723  0.99317139  0.69745452    -0.13010
F3392       F  0.94447024  0.99845912  0.65091733    -0.15380
F3393       F  0.89910825  0.96030143  0.75409158    -0.15380
F3394       F  0.86385347  0.96224416  0.70595477    -0.13010
C3395       C  0.80048735  0.01053411  0.61310253     0.25000
C3396       C  0.82783161  0.00632933  0.59990643    -0.23110
C3397       C  0.83118218  0.01546836  0.57102850     0.19900
C3398       C  0.80682333  0.02092696  0.55392231     0.24940
C3399       C  0.77898739  0.02377310  0.56628318    -0.23050
C3400       C  0.77654338  0.02058647  0.59661997     0.19840
F3401       F  0.75030545  0.02431921  0.60968487    -0.13010
F3402       F  0.79633727  0.00295984  0.64110689    -0.15380
F3403       F  0.81020266  0.01915542  0.52489990    -0.15380
F3404       F  0.85784595  0.01553159  0.55814889    -0.13010
C3405       C  0.80177234  0.10894889  0.54398298     0.25000
C3406       C  0.82198811  0.10715602  0.52119893    -0.23110
C3407       C  0.81649920  0.08812642  0.49816775     0.19900
C3408       C  0.79286900  0.06919359  0.49915984     0.24940
C3409       C  0.77298282  0.06993795  0.52243712    -0.23050
C3410       C  0.77713255  0.09078487  0.54434246     0.19840
F3411       F  0.75855143  0.09201270  0.56712392    -0.13010
F3412       F  0.80724116  0.12652671  0.56699298    -0.15380
F3413       F  0.79241734  0.04720843  0.47973800    -0.15380
F3414       F  0.83653801  0.08487945  0.47676949    -0.13010
C3415       C  0.07177312  0.82332061  0.52473150     0.25000
C3416       C  0.10052141  0.82038082  0.51426140    -0.23110
C3417       C  0.11473027  0.79377969  0.51885098     0.19900
C3418       C  0.09912399  0.77004252  0.53034899     0.24940
C3419       C  0.06847869  0.77174822  0.53455374    -0.23050
C3420       C  0.05537252  0.79908416  0.53165026     0.19840
F3421       F  0.02601478  0.80186569  0.53019439    -0.13010
F3422       F  0.05802545  0.84934085  0.52454799    -0.15380
F3423       F  0.11311352  0.74447372  0.53390209    -0.15380
F3424       F  0.14274944  0.78999458  0.51013628    -0.13010
C3425       C  0.17350367  0.92502462  0.49620037     0.25000
C3426       C  0.17546270  0.89700073  0.48443593    -0.23110
C3427       C  0.20194683  0.88829123  0.47175143     0.19900
C3428       C  0.22571483  0.90764675  0.47023740     0.24940
C3429       C  0.22305567  0.93616451  0.48069529    -0.23050
C3430       C  0.19666471  0.94446988  0.49381810     0.19840
F3431       F  0.19312571  0.97148686  0.50458491    -0.13010
F3432       F  0.14834553  0.93406985  0.50887049    -0.15380
F3433       F  0.25105776  0.89886824  0.45784960    -0.15380
F3434       F  0.20429886  0.86163197  0.45964243    -0.13010
C3435       C  0.18109962  0.01475241  0.42804298     0.25000
C3436       C  0.17674242  0.00124475  0.40085384    -0.23110
C3437       C  0.19700053  0.97986692  0.39234956     0.19900
C3438       C  0.22044746  0.97208085  0.41099393     0.24940
C3439       C  0.22289491  0.98422952  0.43902581    -0.23050
C3440       C  0.20207964  0.00480404  0.44743282     0.19840
F3441       F  0.20230985  0.01607456  0.47455412    -0.13010
F3442       F  0.16373205  0.03698108  0.43667289    -0.15380
F3443       F  0.24036385  0.95234610  0.40196153    -0.15380
F3444       F  0.19364828  0.96596092  0.36662282    -0.13010
C3445       C  0.94015536  0.16862280  0.49161703     0.25000
C3446       C  0.91021773  0.17109264  0.49874504    -0.23110
C3447       C  0.89653347  0.19784246  0.49248918     0.19900
C3448       C  0.91287704  0.22112405  0.48124548     0.24940
C3449       C  0.94363987  0.21951948  0.47960221    -0.23050
C3450       C  0.95678205  0.19301713  0.48611952     0.19840
F3451       F  0.98576252  0.19130036  0.49139606    -0.13010
F3452       F  0.95418226  0.14279619  0.49086601    -0.15380
F3453       F  0.89898881  0.24609861  0.47452869    -0.15380
F3454       F  0.86788875  0.20229533  0.49838837    -0.13010
C3455       C  0.00383102  0.19991364  0.43349463     0.25000
C3456       C  0.98433726  0.22347657  0.43114246    -0.23110
C3457       C  0.96241225  0.22184484  0.40953616     0.19900
C3458       C  0.95940718  0.19692278  0.39189651     0.24940
C3459       C  0.97881562  0.17356054  0.39504058    -0.23050
C3460       C  0.00170857  0.17603793  0.41513207     0.19840
F3461       F  0.02035563  0.15356603  0.41924828    -0.13010
F3462       F  0.02269634  0.19755522  0.45590204    -0.15380
F3463       F  0.93654131  0.19485889  0.37317140    -0.15380
F3464       F  0.94265366  0.24353504  0.40694456    -0.13010
C3465       C  0.91614609  0.27743133  0.52805092     0.25000
C3466       C  0.94280367  0.26268076  0.52404519    -0.23110
C3467       C  0.94877560  0.23862752  0.54146159     0.19900
C3468       C  0.92806199  0.22841701  0.56089889     0.24940
C3469       C  0.90299631  0.24489239  0.56742750    -0.23050
C3470       C  0.89689526  0.26923581  0.55030891     0.19840
F3471       F  0.87328267  0.28594962  0.55621233    -0.13010
F3472       F  0.90867009  0.29953340  0.51038935    -0.15380
F3473       F  0.93455826  0.20458549  0.57671477    -0.15380
F3474       F  0.97471870  0.22460664  0.53920583    -0.13010
C3475       C  0.96837615  0.33604056  0.52766395     0.25000
C3476       C  0.98573173  0.31098200  0.52422631    -0.23110
C3477       C  0.00863856  0.30646117  0.54401103     0.19900
C3478       C  0.01426596  0.32625746  0.56636102     0.24940
C3479       C  0.99608596  0.35053991  0.57098959    -0.23050
C3480       C  0.97317772  0.35537045  0.55112006     0.19840
F3481       F  0.95493036  0.37815331  0.55489881    -0.13010
F3482       F  0.94719323  0.34214175  0.50799828    -0.15380
F3483       F  0.03706291  0.32097973  0.58454486    -0.15380
F3484       F  0.02587582  0.28272332  0.54154063    -0.13010
C3485       C  0.02681286  0.29476140  0.40971451     0.25000
C3486       C  0.02709687  0.27209115  0.43000579    -0.23110
C3487       C  0.05062800  0.25252443  0.42925674     0.19900
C3488       C  0.07207334  0.25434892  0.40825755     0.24940
C3489       C  0.07324551  0.27817786  0.38980504    -0.23050
C3490       C  0.05024795  0.29830405  0.39030005     0.19840
F3491       F  0.05143773  0.32215813  0.37342770    -0.13010
F3492       F  0.00499976  0.31460416  0.41020535    -0.15380
F3493       F  0.09467700  0.23529761  0.40918773    -0.15380
F3494       F  0.05601852  0.23441130  0.45133720    -0.13010
C3495       C  0.05809514  0.30031025  0.48498345     0.25000
C3496       C  0.03040054  0.31219062  0.47995240    -0.23110
C3497       C  0.02760250  0.34258530  0.48225699     0.19900
C3498       C  0.05129182  0.35981709  0.49228543     0.24940
C3499       C  0.07896031  0.34729116  0.49749080    -0.23050
C3500       C  0.08229806  0.31774551  0.49022414     0.19840
F3501       F  0.10900891  0.30490226  0.49004178    -0.13010
F3502       F  0.06142169  0.27152861  0.48828422    -0.15380
F3503       F  0.04672145  0.38821273  0.49801259    -0.15380
F3504       F  0.00153706  0.35532982  0.47655748    -0.13010
C3505       C  0.50476794  0.40362512  0.69484514     0.25000
C3506       C  0.47921496  0.38909740  0.68653341    -0.23110
C3507       C  0.45499984  0.38976112  0.70512946     0.19900
C3508       C  0.45600619  0.40628319  0.73087525     0.24940
C3509       C  0.48042203  0.42401192  0.73722622    -0.23050
C3510       C  0.50473180  0.42218747  0.71857620     0.19840
F3511       F  0.52588327  0.44247663  0.71904812    -0.13010
F3512       F  0.52804550  0.40428194  0.67665334    -0.15380
F3513       F  0.43196966  0.40743843  0.74794989    -0.15380
F3514       F  0.42971462  0.37649222  0.69719563    -0.13010
C3515       C  0.51806056  0.30577130  0.61062994     0.25000
C3516       C  0.50146961  0.32795856  0.59759212    -0.23110
C3517       C  0.49419850  0.32507366  0.56793173     0.19900
C3518       C  0.50440209  0.30195082  0.55161074     0.24940
C3519       C  0.51908155  0.27904046  0.56493862    -0.23050
C3520       C  0.52613407  0.28112389  0.59452516     0.19840
F3521       F  0.54056991  0.25924009  0.60775802    -0.13010
F3522       F  0.52675325  0.30792505  0.63867226    -0.15380
F3523       F  0.49594227  0.29984988  0.52345110    -0.15380
F3524       F  0.47564192  0.34384788  0.55477359    -0.13010
C3525       C  0.49350096  0.70498651  0.39493821     0.25000
C3526       C  0.50545959  0.68116379  0.40999839    -0.23110
C3527       C  0.50322186  0.68184880  0.44067189     0.19900
C3528       C  0.49691126  0.70735226  0.45529236     0.24940
C3529       C  0.48546344  0.73108207  0.44060458    -0.23050
C3530       C  0.48181367  0.72882676  0.41032519     0.19840
F3531       F  0.46776116  0.74994484  0.39559204    -0.13010
F3532       F  0.49342106  0.70574567  0.36561466    -0.15380
F3533       F  0.50303541  0.70906459  0.48397944    -0.15380
F3534       F  0.50691627  0.65784977  0.45706620    -0.13010
C3535       C  0.51222060  0.57741505  0.32770190     0.25000
C3536       C  0.52379481  0.60557309  0.32845656    -0.23110
C3537       C  0.53510141  0.61711718  0.30266355     0.19900
C3538       C  0.53573384  0.60031760  0.27700975     0.24940
C3539       C  0.52565246  0.57152270  0.27689025    -0.23050
C3540       C  0.51376873  0.56049984  0.30265860     0.19840
F3541       F  0.50200744  0.53365228  0.30330425    -0.13010
F3542       F  0.50018007  0.56579899  0.35182475    -0.15380
F3543       F  0.54701828  0.61181269  0.25253096    -0.15380
F3544       F  0.54685012  0.64403608  0.30267847    -0.13010
C3545       C  0.70717690  0.46874840  0.37940204     0.25000
C3546       C  0.68203792  0.48036548  0.39248584    -0.23110
C3547       C  0.68409618  0.49088030  0.42117080     0.19900
C3548       C  0.70807795  0.48420310  0.43820947     0.24940
C3549       C  0.73282992  0.47137947  0.42586741    -0.23050
C3550       C  0.73300919  0.46531042  0.39587091     0.19840
F3551       F  0.75713418  0.45375731  0.38339088    -0.13010
F3552       F  0.70612619  0.45897383  0.35167759    -0.15380
F3553       F  0.70728110  0.49036132  0.46701808    -0.15380
F3554       F  0.66137964  0.50509808  0.43367808    -0.13010
C3555       C  0.57125523  0.48732148  0.31389927     0.25000
C3556       C  0.59785793  0.50074264  0.32155480    -0.23110
C3557       C  0.60767584  0.52416165  0.30478255     0.19900
C3558       C  0.59086369  0.53384708  0.28103409     0.24940
C3559       C  0.56361268  0.52105151  0.27469535    -0.23050
C3560       C  0.55370191  0.49848237  0.29221010     0.19840
F3561       F  0.52670550  0.48695375  0.28836364    -0.13010
F3562       F  0.56161440  0.46356986  0.32816773    -0.15380
F3563       F  0.60086301  0.55588403  0.26456718    -0.15380
F3564       F  0.63280069  0.53817765  0.31183824    -0.13010
C3565       C  0.40798280  0.47658917  0.72932511     0.25000
C3566       C  0.43850776  0.47167815  0.72850966    -0.23110
C3567       C  0.45265697  0.47443790  0.70172815     0.19900
C3568       C  0.43728543  0.48262698  0.67712586     0.24940
C3569       C  0.40855986  0.49350688  0.67930598    -0.23050
C3570       C  0.39340505  0.48879908  0.70533919     0.19840
F3571       F  0.36542471  0.49796107  0.70842594    -0.13010
F3572       F  0.39313237  0.47286295  0.75438572    -0.15380
F3573       F  0.45179890  0.48275826  0.65153074    -0.15380
F3574       F  0.48215510  0.47372614  0.69989061    -0.13010
C3575       C  0.30807527  0.54034134  0.61121778     0.25000
C3576       C  0.33200930  0.52244281  0.60465273    -0.23110
C3577       C  0.32995053  0.50358570  0.58095201     0.19900
C3578       C  0.30510540  0.50334121  0.56331955     0.24940
C3579       C  0.28133334  0.52204918  0.56885894    -0.23050
C3580       C  0.28291796  0.54012163  0.59344804     0.19840
F3581       F  0.26051170  0.55830293  0.59960059    -0.13010
F3582       F  0.30965234  0.55897962  0.63394931    -0.15380
F3583       F  0.30548050  0.48573093  0.53990370    -0.15380
F3584       F  0.35291295  0.48637996  0.57387756    -0.13010
C3585       C  0.41479245  0.68936948  0.49994677     0.25000
C3586       C  0.39483202  0.68557833  0.47710792    -0.23110
C3587       C  0.39357680  0.70666537  0.45529736     0.19900
C3588       C  0.41244900  0.73087324  0.45646104     0.24940
C3589       C  0.43435166  0.73291264  0.47803332    -0.23050
C3590       C  0.43594276  0.71072435  0.49864577     0.19840
F3591       F  0.45965726  0.70729285  0.51570453    -0.13010
F3592       F  0.41725571  0.66898832  0.52091397    -0.15380
F3593       F  0.41066832  0.75125103  0.43553981    -0.15380
F3594       F  0.37536184  0.70303998  0.43229246    -0.13010
C3595       C  0.30756357  0.61203364  0.51888721     0.25000
C3596       C  0.33107098  0.59931427  0.50371165    -0.23110
C3597       C  0.32993075  0.56922512  0.49852567     0.19900
C3598       C  0.30812162  0.55222592  0.51020881     0.24940
C3599       C  0.28367218  0.56479354  0.52330854    -0.23050
C3600       C  0.28358821  0.59495446  0.52777321     0.19840
F3601       F  0.26017083  0.60780569  0.54031340    -0.13010
F3602       F  0.30757089  0.64069743  0.52505705    -0.15380
F3603       F  0.30862428  0.52364673  0.50390356    -0.15380
F3604       F  0.34911891  0.55600548  0.48038318    -0.13010
C3605       C  0.68191711  0.40912657  0.46942864     0.25000
C3606       C  0.68606223  0.39059124  0.49291054    -0.23110
C3607       C  0.71460518  0.38063593  0.49819454     0.19900
C3608       C  0.73848957  0.39376213  0.48392614     0.24940
C3609       C  0.73437369  0.41906661  0.46712659    -0.23050
C3610       C  0.70582539  0.42110721  0.45520117     0.19840
F3611       F  0.70158080  0.42557361  0.42666992    -0.13010
F3612       F  0.65457030  0.41405369  0.45895150    -0.15380
F3613       F  0.76553989  0.38224507  0.48693405    -0.15380
F3614       F  0.71951404  0.35956770  0.51791414    -0.13010
C3615       C  0.58157845  0.32091818  0.50322464     0.25000
C3616       C  0.60535252  0.32222253  0.52260936    -0.23110
C3617       C  0.60992140  0.29911876  0.54170363     0.19900
C3618       C  0.59041749  0.27554674  0.54196664     0.24940
C3619       C  0.56602951  0.27478856  0.52322394    -0.23050
C3620       C  0.56209879  0.29764346  0.50362068     0.19840
F3621       F  0.53846975  0.29840484  0.48585115    -0.13010
F3622       F  0.57630482  0.34316276  0.48487279    -0.15380
F3623       F  0.59475263  0.25387458  0.56116068    -0.15380
F3624       F  0.63231849  0.30011790  0.56106173    -0.13010
C3625       C  0.95049241  0.06713891  0.22189014     0.25000
C3626       C  0.97951875  0.07674541  0.22081658    -0.23110
C3627       C  0.98489008  0.10630007  0.22697609     0.19900
C3628       C  0.96229209  0.12407138  0.23792929     0.24940
C3629       C  0.93351528  0.11340730  0.23925323    -0.23050
C3630       C  0.92776976  0.08620028  0.22669962     0.19840
F3631       F  0.89997951  0.07597147  0.22435162    -0.13010
F3632       F  0.94412706  0.03881406  0.22355101    -0.15380
F3633       F  0.96884348  0.15056172  0.24886128    -0.15380
F3634       F  0.01237903  0.11707890  0.22504306    -0.13010
C3635       C  0.97828275  0.05767426  0.15063005     0.25000
C3636       C  0.98005411  0.03526426  0.17126022    -0.23110
C3637       C  0.95748725  0.01424582  0.17022990     0.19900
C3638       C  0.93739331  0.01296475  0.14776341     0.24940
C3639       C  0.93356010  0.03660410  0.12952703    -0.23050
C3640       C  0.95432876  0.05915627  0.13097295     0.19840
F3641       F  0.95068334  0.08302974  0.11447345    -0.13010
F3642       F  0.99837491  0.07924473  0.15106258    -0.15380
F3643       F  0.91709000  0.99145224  0.14810370    -0.15380
F3644       F  0.95075193  0.99763799  0.19309561    -0.13010
C3645       C  0.06308810  0.95800514  0.21283676     0.25000
C3646       C  0.07151582  0.98708335  0.21585039    -0.23110
C3647       C  0.10183114  0.99197353  0.22107633     0.19900
C3648       C  0.12046820  0.96840098  0.22803041     0.24940
C3649       C  0.11046744  0.93987826  0.22368670    -0.23050
C3650       C  0.08372126  0.93652394  0.20902203     0.19840
F3651       F  0.07409549  0.90972023  0.20133060    -0.13010
F3652       F  0.03656862  0.94897492  0.22150720    -0.15380
F3653       F  0.14700497  0.97338506  0.24030992    -0.15380
F3654       F  0.11270729  0.01918523  0.22202333    -0.13010
C3655       C  0.03544116  0.97922977  0.15049830     0.25000
C3656       C  0.01993056  0.98651912  0.17581562    -0.23110
C3657       C  0.99819986  0.96777687  0.18547636     0.19900
C3658       C  0.98874573  0.94507432  0.16853066     0.24940
C3659       C  0.00604180  0.93529620  0.14541030    -0.23050
C3660       C  0.02935015  0.95283369  0.13599996     0.19840
F3661       F  0.04694814  0.94376927  0.11422220    -0.13010
F3662       F  0.05771626  0.99622773  0.14143426    -0.15380
F3663       F  0.96516076  0.92972185  0.17759892    -0.15380
F3664       F  0.98789455  0.97000647  0.21303781    -0.13010
C3665       C  0.08211486  0.99692393  0.30698540     0.25000
C3666       C  0.10365764  0.01733197  0.31509412    -0.23110
C3667       C  0.10769499  0.04156140  0.29735499     0.19900
C3668       C  0.08985270  0.04577066  0.27273539     0.24940
C3669       C  0.06696316  0.02635268  0.26592173    -0.23050
C3670       C  0.06370888  0.00163178  0.28312863     0.19840
F3671       F  0.04199790  0.98240072  0.27733901    -0.13010
F3672       F  0.07725041  0.97348689  0.32385965    -0.15380
F3673       F  0.09527186  0.06854995  0.25523518    -0.15380
F3674       F  0.12779638  0.06192023  0.30473844    -0.13010
C3675       C  0.99076103  0.05423472  0.28418982     0.25000
C3676       C  0.01570704  0.06490031  0.27019473    -0.23110
C3677       C  0.02905964  0.09010760  0.28132876     0.19900
C3678       C  0.01794900  0.10392237  0.30621734     0.24940
C3679       C  0.99252046  0.09349003  0.31980730    -0.23050
C3680       C  0.97872830  0.06883961  0.30782634     0.19840
F3681       F  0.95330826  0.05875644  0.31903917    -0.13010
F3682       F  0.97733527  0.02994834  0.27420479    -0.15380
F3683       F  0.03246427  0.12709076  0.31727128    -0.15380
F3684       F  0.05214890  0.10206583  0.26759257    -0.13010
C3685       C  0.10037821  0.22178878  0.98699391     0.25000
C3686       C  0.06977770  0.21755888  0.98325239    -0.23110
C3687       C  0.05913953  0.21715859  0.95456909     0.19900
C3688       C  0.07790300  0.22088301  0.93123052     0.24940
C3689       C  0.10581525  0.23320444  0.93565313    -0.23050
C3690       C  0.11774446  0.23172090  0.96371968     0.19840
F3691       F  0.14498701  0.24211576  0.96907963    -0.13010
F3692       F  0.11256432  0.21997853  0.01375792    -0.15380
F3693       F  0.06645964  0.21898546  0.90407495    -0.15380
F3694       F  0.03013617  0.21806639  0.94881564    -0.13010
C3695       C  0.99628154  0.17540708  0.97053822     0.25000
C3696       C  0.02090203  0.17492428  0.98901007    -0.23110
C3697       C  0.04279814  0.15412601  0.98363733     0.19900
C3698       C  0.04107056  0.13617457  0.95890658     0.24940
C3699       C  0.01641369  0.13735657  0.94064645    -0.23050
C3700       C  0.99312055  0.15550597  0.94819570     0.19840
F3701       F  0.96951156  0.15784625  0.93034513    -0.13010
F3702       F  0.97802072  0.19840123  0.97037562    -0.15380
F3703       F  0.06427714  0.11949366  0.95154857    -0.15380
F3704       F  0.06701659  0.15315139  0.00069243    -0.13010
C3705       C  0.94957130  0.19673680  0.02047430     0.25000
C3706       C  0.97528514  0.18473707  0.03181680    -0.23110
C3707       C  0.97532848  0.15512885  0.03898431     0.19900
C3708       C  0.94990051  0.13806349  0.03508129     0.24940
C3709       C  0.92441209  0.15010302  0.02275605    -0.23050
C3710       C  0.92539562  0.17948598  0.01440422     0.19840
F3711       F  0.90313365  0.19164781  0.99916201    -0.13010
F3712       F  0.94890789  0.22479461  0.01206502    -0.15380
F3713       F  0.95019902  0.11008611  0.04362289    -0.15380
F3714       F  0.99994569  0.14284908  0.04983232    -0.13010
C3715       C  0.96254487  0.26148772  0.06352823     0.25000
C3716       C  0.97756274  0.23565920  0.06940539    -0.23110
C3717       C  0.96843751  0.21892116  0.09315825     0.19900
C3718       C  0.94425082  0.22757476  0.11000676     0.24940
C3719       C  0.92967653  0.25368622  0.10408477    -0.23050
C3720       C  0.94024043  0.27112918  0.08153767     0.19840
F3721       F  0.92675098  0.29645379  0.07509639    -0.13010
F3722       F  0.96893323  0.27710955  0.03959532    -0.15380
F3723       F  0.93405595  0.20973010  0.13085849    -0.15380
F3724       F  0.98248987  0.19394731  0.09955774    -0.13010
C3725       C  0.09185106  0.27300756  0.04644885     0.25000
C3726       C  0.07216859  0.26618913  0.02394417    -0.23110
C3727       C  0.07249739  0.28293192  0.99849179     0.19900
C3728       C  0.09064860  0.30710231  0.99653772     0.24940
C3729       C  0.10837122  0.31522822  0.02006974    -0.23050
C3730       C  0.10961011  0.29753939  0.04463291     0.19840
F3731       F  0.12611008  0.30550221  0.06786001    -0.13010
F3732       F  0.09242675  0.25693559  0.07092970    -0.15380
F3733       F  0.08838476  0.32451352  0.97306882    -0.15380
F3734       F  0.05287125  0.27785387  0.97690499    -0.13010
C3735       C  0.02448014  0.30187848  0.05530163     0.25000
C3736       C  0.02673796  0.27448717  0.06815224    -0.23110
C3737       C  0.02269760  0.27281968  0.09844923     0.19900
C3738       C  0.01190256  0.29670220  0.11423048     0.24940
C3739       C  0.00796870  0.32366630  0.10065996    -0.23050
C3740       C  0.01791843  0.32627189  0.07181731     0.19840
F3741       F  0.01959900  0.35237736  0.05864212    -0.13010
F3742       F  0.02478509  0.30489437  0.02616834    -0.15380
F3743       F  0.00354192  0.29269673  0.14204255    -0.15380
F3744       F  0.02607850  0.24716690  0.11212366    -0.13010
loop_ 
_geom_bond_atom_site_label_1 
_geom_bond_atom_site_label_2 
_geom_bond_distance 
_geom_bond_site_symmetry_2 
_ccdc_geom_bond_type 
C1            C2   1.426       .  A
C1            C6   1.425       .  A
C1         C3716   1.510   1_455  S
C2            C3   1.432       .  A
C2         C3736   1.519       .  S
C3            C4   1.433       .  A
C3         C3726   1.497       .  S
C4            C5   1.438       .  A
C4         C3686   1.528   1_554  S
C5            C6   1.435       .  A
C5         C3696   1.506   1_554  S
C6         C3706   1.506   1_455  S
C7            C8   1.432       .  A
C7           C12   1.432       .  A
C7         C3669   1.508       .  S
C8            C9   1.433       .  A
C8         C3676   1.505       .  S
C9           C10   1.430       .  A
C9         C3626   1.511   1_455  S
C10          C11   1.438       .  A
C10        C3636   1.535   1_455  S
C11          C12   1.443       .  A
C11        C3656   1.490   1_545  S
C12        C3646   1.532   1_545  S
O13         Mg15   2.116       .  S
O13         Mg21   2.139       .  S
O13          C48   1.236       .  S
C14          O27   1.237       .  S
C14          O51   1.274       .  A
C14          H53   1.081       .  S
Mg15         O44   2.151       .  S
Mg15         O59   2.282       .  S
Mg15         O55   2.249       .  S
Mg15         O26   2.292       .  S
O16         Mg58   2.126       .  S
O16         Mg41   2.140       .  S
O16          C37   1.236       .  S
O17          C48   1.269       .  A
O17         Mg41   2.295       .  S
C18          C99   1.466       .  S
C18          O20   1.265       .  A
C18          O32   1.275       .  A
O19          C47   1.268       .  A
O19         Mg21   2.292       .  S
O20         Mg52   2.251       .  S
Mg21         O27   2.144       .  S
Mg21         O35   2.285       .  S
Mg21         O23   2.254       .  S
C22          C72   1.464       .  S
C22          O60   1.268       .  A
C22          O28   1.270       .  A
O23          C30   1.270       .  A
H24          C37   1.083       .  S
C25          O39   1.237       .  S
C25          O40   1.273       .  A
C25          H50   1.081       .  S
O26          C49   1.269       .  A
O27         Mg41   2.149       .  S
O28         Mg58   2.254       .  S
C29          C81   1.475       .  S
C29          O42   1.268       .  A
C29          O34   1.272       .  A
C30         C108   1.466       .  S
C30          O57   1.271       .  A
Mg31         O38   2.107       .  S
Mg31         O39   2.159       .  S
Mg31         O32   2.299       .  S
Mg31         O33   2.311       .  S
Mg31         O60   2.254       .  S
O33          C37   1.271       .  A
O34         Mg41   2.293       .  S
O35          C54   1.272       .  A
O36          C56   1.268       .  A
O36         Mg52   2.247       .  S
O38         Mg52   2.126       .  S
O38          C49   1.236       .  S
O39         Mg58   2.146       .  S
O40         Mg52   2.312       .  S
Mg41         O57   2.274       .  S
O42         Mg58   2.289       .  S
H43          C48   1.082       .  S
O44         Mg52   2.118       .  S
O44          C47   1.235       .  S
H45          C47   1.082       .  S
H46          C49   1.082       .  S
O51         Mg58   2.319       .  S
C54          C63   1.471       .  S
C54          O59   1.272       .  A
O55          C56   1.268       .  A
C56          C90   1.456       .  S
C61          C62   1.407       .  A
C61          C66   1.415       .  A
C61        C3606   1.492       .  S
C62          C63   1.398       .  A
C62          H67   1.085       .  S
C63          C64   1.397       .  A
C64          C65   1.405       .  A
C64          H68   1.085       .  S
C65          C66   1.416       .  A
C65        C3616   1.487       .  S
C66          H69   1.083       .  S
C70          C71   1.401       .  A
C70          C75   1.421       .  A
C70        C3596   1.504       .  S
C71          C72   1.389       .  A
C71          H76   1.084       .  S
C72          C73   1.389       .  A
C73          C74   1.407       .  A
C73          H77   1.086       .  S
C74          C75   1.422       .  A
C74        C3586   1.482       .  S
C75          H78   1.081       .  S
C79          C80   1.406       .  A
C79          C84   1.415       .  A
C79        C3569   1.501       .  S
C80          C81   1.391       .  A
C80          H85   1.084       .  S
C81          C82   1.399       .  A
C82          C83   1.409       .  A
C82          H86   1.085       .  S
C83          C84   1.416       .  A
C83        C3576   1.484       .  S
C84          H87   1.083       .  S
C88          C89   1.404       .  A
C88          C93   1.417       .  A
C88        C3546   1.486       .  S
C89          C90   1.382       .  A
C89          H94   1.085       .  S
C90          C91   1.388       .  A
C91          C92   1.404       .  A
C91          H95   1.085       .  S
C92          C93   1.419       .  A
C92        C3556   1.490       .  S
C93          H96   1.082       .  S
C97          C98   1.404       .  A
C97         C102   1.426       .  A
C97        C3536   1.496       .  S
C98          C99   1.388       .  A
C98         H103   1.085       .  S
C99         C100   1.384       .  A
C100        C101   1.409       .  A
C100        H104   1.080       .  S
C101        C102   1.431       .  A
C101       C3526   1.520       .  S
C102        H105   1.080       .  S
C106        C107   1.406       .  A
C106        C111   1.415       .  A
C106       C3506   1.480       .  S
C107        C108   1.392       .  A
C107        H112   1.084       .  S
C108        C109   1.392       .  A
C109        C110   1.402       .  A
C109        H113   1.084       .  S
C110        C111   1.418       .  A
C110       C3516   1.499       .  S
C111        H114   1.082       .  S
C115        C116   1.439       .  A
C115        C120   1.433   1_455  A
C115       C3486   1.504       .  S
C116        C117   1.431   1_455  A
C116       C3496   1.516       .  S
C117        C118   1.430       .  A
C117       C3476   1.512       .  S
C118        C119   1.432       .  A
C118       C3466   1.499       .  S
C119        C120   1.427       .  A
C119       C3449   1.514       .  S
C120       C3456   1.517       .  S
O121       Mg123   2.109       .  S
O121       Mg129   2.145       .  S
O121        C156   1.236       .  S
C122        O135   1.236   1_655  S
C122        O159   1.273   1_565  A
C122        H161   1.081       .  S
Mg123       O152   2.137       .  S
Mg123       O167   2.284       .  S
Mg123       O163   2.261       .  S
Mg123       O134   2.298       .  S
O124       Mg166   2.125       .  S
O124       Mg149   2.130   1_655  S
O124        C145   1.236       .  S
O125        C156   1.269   1_545  A
O125       Mg149   2.293       .  S
C126        C207   1.458       .  S
C126        O128   1.265       .  A
C126        O140   1.275       .  A
O127        C155   1.266   1_455  A
O127       Mg129   2.283       .  S
O128       Mg160   2.232       .  S
Mg129       O135   2.145       .  S
Mg129       O143   2.270       .  S
Mg129       O131   2.228       .  S
C130        C200   1.470       .  S
C130        O168   1.271       .  A
C130        O136   1.274       .  A
O131        C138   1.265   1_565  A
H132        C145   1.082   1_455  S
C133        O147   1.239   1_565  S
C133        O148   1.273       .  A
C133        H158   1.082       .  S
O134        C157   1.270       .  A
O135       Mg149   2.152   1_565  S
O136       Mg166   2.292       .  S
C137        C182   1.471       .  S
C137        O150   1.270       .  A
C137        O142   1.269       .  A
C138        C171   1.449       .  S
C138        O165   1.266       .  A
Mg139       O146   2.127   1_545  S
Mg139       O147   2.141       .  S
Mg139       O140   2.286   1_545  S
Mg139       O141   2.310       .  S
Mg139       O168   2.281       .  S
O141        C145   1.271       .  A
O142       Mg149   2.269   1_655  S
O143        C162   1.270       .  A
O144        C164   1.271       .  A
O144       Mg160   2.272   1_455  S
O146       Mg160   2.142       .  S
O146        C157   1.237   1_655  S
O147       Mg166   2.135       .  S
O148       Mg160   2.309       .  S
Mg149       O165   2.245       .  S
O150       Mg166   2.285       .  S
H151        C156   1.082       .  S
O152       Mg160   2.102   1_455  S
O152        C155   1.234   1_455  S
H153        C155   1.082       .  S
H154        C157   1.082   1_545  S
O159       Mg166   2.316       .  S
C162        C189   1.467       .  S
C162        O167   1.274       .  A
O163        C164   1.270       .  A
C164        C216   1.462       .  S
C169        C170   1.400       .  A
C169        C174   1.430       .  A
C169       C3436   1.507       .  S
C170        C171   1.383       .  A
C170        H175   1.086   1_545  S
C171        C172   1.383       .  A
C172        C173   1.400       .  A
C172        H176   1.086       .  S
C173        C174   1.432       .  A
C173       C3666   1.493       .  S
C174        H177   1.082       .  S
C178        C179   1.418       .  A
C178        C183   1.408       .  A
C178       C3459   1.490       .  S
C179        C180   1.420       .  A
C179        H184   1.083       .  S
C180        C181   1.403       .  A
C180       C3679   1.501       .  S
C181        C182   1.395       .  A
C181        H185   1.084       .  S
C182        C183   1.396       .  A
C183        H186   1.085       .  S
C187        C188   1.410       .  A
C187        C192   1.421       .  A
C187       C3416   1.506       .  S
C188        C189   1.389       .  A
C188        H193   1.084       .  S
C189        C190   1.390       .  A
C190        C191   1.405       .  A
C190        H194   1.086       .  S
C191        C192   1.422       .  A
C191       C3426   1.489       .  S
C192        H195   1.083       .  S
C196        C197   1.420       .  A
C196        C201   1.415       .  A
C196       C3446   1.517       .  S
C197        C198   1.415       .  A
C197        H202   1.080       .  S
C198        C199   1.401       .  A
C198       C3406   1.475       .  S
C199        C200   1.388       .  A
C199        H203   1.086       .  S
C200        C201   1.394       .  A
C201        H204   1.079       .  S
C205        C206   1.401       .  A
C205        C210   1.420       .  A
C205       C3386   1.482       .  S
C206        C207   1.383       .  A
C206        H211   1.086       .  S
C207        C208   1.384       .  A
C208        C209   1.407       .  A
C208        H212   1.084       .  S
C209        C210   1.420       .  A
C209       C3396   1.498   1_565  S
C210        H213   1.083   1_565  S
C214        C215   1.401       .  A
C214        C219   1.418       .  A
C214       C3366   1.489       .  S
C215        C216   1.394       .  A
C215        H220   1.085       .  S
C216        C217   1.391       .  A
C217        C218   1.404       .  A
C217        H221   1.085       .  S
C218        C219   1.417       .  A
C218       C3376   1.483       .  S
C219        H222   1.083       .  S
C223        C224   1.424   1_565  A
C223        C228   1.422       .  A
C223       C3336   1.498   1_565  S
C224        C225   1.426   1_545  A
C224       C3326   1.495       .  S
C225        C226   1.424       .  A
C225       C3439   1.511       .  S
C226        C227   1.431       .  A
C226       C3429   1.502       .  S
C227        C228   1.429       .  A
C227       C3346   1.498       .  S
C228       C3359   1.507       .  S
O229       Mg231   2.145   1_554  S
O229       Mg237   2.152       .  S
O229        C264   1.237   1_455  S
C230        O243   1.236       .  S
C230        O267   1.271       .  A
C230        H269   1.082   1_655  S
Mg231       O260   2.147       .  S
Mg231       O275   2.279   1_556  S
Mg231       O271   2.299       .  S
Mg231       O242   2.294       .  S
O232       Mg274   2.144       .  S
O232       Mg257   2.132       .  S
O232        C253   1.237   1_554  S
O233        C264   1.272       .  A
O233       Mg257   2.309       .  S
C234        C317   1.461       .  S
C234        O236   1.270       .  A
C234        O248   1.269       .  A
O235        C263   1.270       .  A
O235       Mg237   2.297       .  S
O236       Mg268   2.272       .  S
Mg237       O243   2.132   1_455  S
Mg237       O251   2.266       .  S
Mg237       O239   2.274   1_455  S
C238        C324   1.463       .  S
C238        O276   1.265       .  A
C238        O244   1.276       .  A
O239        C246   1.272       .  A
H240        C253   1.082       .  S
C241        O255   1.237   1_455  S
C241        O256   1.270       .  A
C241        H266   1.082   1_556  S
O242        C265   1.269   1_455  A
O243       Mg257   2.141       .  S
O244       Mg274   2.293   1_556  S
C245        C297   1.469       .  S
C245        O258   1.271       .  A
C245        O250   1.273       .  A
C246        C290   1.468       .  S
C246        O273   1.269       .  A
Mg247       O254   2.118   1_655  S
Mg247       O255   2.143       .  S
Mg247       O248   2.262   1_655  S
Mg247       O249   2.302       .  S
Mg247       O276   2.240       .  S
O249        C253   1.272       .  A
O250       Mg257   2.284       .  S
O251        C270   1.269       .  A
O252        C272   1.273       .  A
O252       Mg268   2.276       .  S
O254       Mg268   2.143       .  S
O254        C265   1.235   1_455  S
O255       Mg274   2.125   1_556  S
O256       Mg268   2.298       .  S
Mg257       O273   2.282       .  S
O258       Mg274   2.281       .  S
H259        C264   1.082   1_556  S
O260       Mg268   2.124       .  S
O260        C263   1.236   1_556  S
H261        C263   1.082       .  S
H262        C265   1.082       .  S
O267       Mg274   2.305       .  S
C270        C281   1.462       .  S
C270        O275   1.274       .  A
O271        C272   1.274       .  A
C272        C306   1.472       .  S
C277        C278   1.415       .  A
C277        C282   1.409       .  A
C277       C3319   1.501   1_554  S
C278        C279   1.412       .  A
C278        H283   1.081   1_554  S
C279        C280   1.401       .  A
C279       C3729   1.470       .  S
C280        C281   1.389       .  A
C280        H284   1.085       .  S
C281        C282   1.388       .  A
C282        H285   1.082       .  S
C286        C287   1.419       .  A
C286        C291   1.404       .  A
C286       C3309   1.484       .  S
C287        C288   1.421       .  A
C287        H292   1.081   1_655  S
C288        C289   1.409       .  A
C288       C3739   1.512   1_655  S
C289        C290   1.392       .  A
C289        H293   1.082       .  S
C290        C291   1.393       .  A
C291        H294   1.085       .  S
C295        C296   1.413       .  A
C295        C300   1.417       .  A
C295       C3296   1.511       .  S
C296        C297   1.394       .  A
C296        H301   1.080       .  S
C297        C298   1.389       .  A
C298        C299   1.401       .  A
C298        H302   1.085       .  S
C299        C300   1.411       .  A
C299       C3286   1.472       .  S
C300        H303   1.080       .  S
C304        C305   1.404       .  A
C304        C309   1.416       .  A
C304       C3279   1.480       .  S
C305        C306   1.392       .  A
C305        H310   1.086       .  S
C306        C307   1.397       .  A
C307        C308   1.412       .  A
C307        H311   1.081       .  S
C308        C309   1.420       .  A
C308       C3269   1.515       .  S
C309        H312   1.081       .  S
C313        C314   1.415       .  A
C313        C318   1.404       .  A
C313       C3246   1.490       .  S
C314        C315   1.414       .  A
C314        H319   1.083       .  S
C315        C316   1.402       .  A
C315       C3259   1.479       .  S
C316        C317   1.391       .  A
C316        H320   1.086       .  S
C317        C318   1.396       .  A
C318        H321   1.085       .  S
C322        C323   1.404       .  A
C322        C327   1.421       .  A
C322       C3226   1.487       .  S
C323        C324   1.387       .  A
C323        H328   1.085       .  S
C324        C325   1.385       .  A
C325        C326   1.406       .  A
C325        H329   1.084       .  S
C326        C327   1.419       .  A
C326       C3236   1.498   1_556  S
C327        H330   1.083   1_556  S
C331        C332   1.429       .  A
C331        C336   1.430       .  A
C331       C3216   1.506   1_655  S
C332        C333   1.436       .  A
C332       C3306   1.514       .  S
C333        C334   1.433       .  A
C333       C3299   1.509       .  S
C334        C335   1.424       .  A
C334       C3199   1.510       .  S
C335        C336   1.431       .  A
C335       C3186   1.511       .  S
C336       C3206   1.501   1_655  S
C337        C338   1.431   1_554  A
C337        C342   1.421       .  A
C337       C3179   1.498       .  S
C338        C339   1.428       .  A
C338       C3316   1.504       .  S
C339        C340   1.425       .  A
C339       C3276   1.513       .  S
C340        C341   1.428       .  A
C340       C3149   1.496       .  S
C341        C342   1.420   1_556  A
C341       C3156   1.496       .  S
C342       C3169   1.502       .  S
O343       Mg345   2.113   1_545  S
O343       Mg351   2.153       .  S
O343        C378   1.235       .  S
C344        O357   1.231       .  S
C344        O381   1.261       .  A
C344        H383   1.082       .  S
Mg345       O374   2.127       .  S
Mg345       O389   2.343       .  S
Mg345       O385   2.254   1_556  S
Mg345       O356   2.324   1_556  S
O346       Mg388   2.171       .  S
O346       Mg371   2.126   1_554  S
O346        C367   1.230       .  S
O347        C378   1.266   1_554  A
O347       Mg371   2.275   1_554  S
C348        C422   1.450       .  S
C348        O350   1.260       .  A
C348        O362   1.269       .  A
O349        C377   1.267       .  A
O349       Mg351   2.284   1_565  S
O350       Mg382   2.198       .  S
Mg351       O357   2.084       .  S
Mg351       O365   2.186   1_545  S
Mg351       O353   2.275       .  S
C352        C402   1.472       .  S
C352        O390   1.272   1_545  A
C352        O358   1.268       .  A
O353        C360   1.273       .  A
H354        C367   1.082       .  S
C355        O369   1.235       .  S
C355        O370   1.270       .  A
C355        H380   1.083       .  S
O356        C379   1.275       .  A
O357       Mg371   2.139       .  S
O358       Mg388   2.263       .  S
C359        C393   1.463       .  S
C359        O372   1.269   1_556  A
C359        O364   1.269       .  A
C360        C411   1.470       .  S
C360        O387   1.270       .  A
Mg361       O368   2.140       .  S
Mg361       O369   2.166       .  S
Mg361       O362   2.249       .  S
Mg361       O363   2.282   1_565  S
Mg361       O390   2.255       .  S
O363        C367   1.263       .  A
O364       Mg371   2.256       .  S
O365        C384   1.267       .  A
O366        C386   1.263       .  A
O366       Mg382   2.261       .  S
O368       Mg382   2.151       .  S
O368        C379   1.238       .  S
O369       Mg388   2.128   1_565  S
O370       Mg382   2.303       .  S
Mg371       O387   2.229       .  S
O372       Mg388   2.200       .  S
H373        C378   1.082   1_554  S
O374       Mg382   2.115   1_556  S
O374        C377   1.234       .  S
H375        C377   1.082       .  S
H376        C379   1.082       .  S
O381       Mg388   2.263   1_556  S
C384        C429   1.472       .  S
C384        O389   1.281       .  A
O385        C386   1.273       .  A
C386        C438   1.468       .  S
C391        C392   1.407       .  A
C391        C396   1.432       .  A
C391       C3136   1.503       .  S
C392        C393   1.390       .  A
C392        H397   1.084       .  S
C393        C394   1.382   1_556  A
C394        C395   1.394       .  A
C394        H398   1.084       .  S
C395        C396   1.427   1_554  A
C395       C3129   1.504       .  S
C396        H399   1.081       .  S
C400        C401   1.408       .  A
C400        C405   1.414       .  A
C400       C3109   1.488       .  S
C401        C402   1.403       .  A
C401        H406   1.084       .  S
C402        C403   1.386   1_545  A
C403        C404   1.400   1_565  A
C403        H407   1.086       .  S
C404        C405   1.411       .  A
C404       C3116   1.476   1_545  S
C405        H408   1.083       .  S
C409        C410   1.400       .  A
C409        C414   1.423       .  A
C409       C3099   1.493       .  S
C410        C411   1.390       .  A
C410        H415   1.085       .  S
C411        C412   1.394       .  A
C412        C413   1.405       .  A
C412        H416   1.084       .  S
C413        C414   1.425       .  A
C413       C3086   1.505       .  S
C414        H417   1.082       .  S
C418        C419   1.431       .  A
C418        C423   1.397       .  A
C418       C3066   1.481       .  S
C419        C420   1.429       .  A
C419        H424   1.082       .  S
C420        C421   1.403       .  A
C420       C3076   1.514       .  S
C421        C422   1.381       .  A
C421        H425   1.084       .  S
C422        C423   1.377       .  A
C423        H426   1.086       .  S
C427        C428   1.404       .  A
C427        C432   1.416       .  A
C427       C3056   1.478       .  S
C428        C429   1.389       .  A
C428        H433   1.085       .  S
C429        C430   1.401       .  A
C430        C431   1.401       .  A
C430        H434   1.085       .  S
C431        C432   1.416       .  A
C431       C3046   1.491       .  S
C432        H435   1.083       .  S
C436        C437   1.402       .  A
C436        C441   1.431       .  A
C436       C3036   1.506   1_554  S
C437        C438   1.379       .  A
C437        H442   1.086       .  S
C438        C439   1.393       .  A
C439        C440   1.407       .  A
C439        H443   1.084       .  S
C440        C441   1.435       .  A
C440       C3029   1.512       .  S
C441        H444   1.082   1_554  S
C445        C446   1.435       .  A
C445        C450   1.433       .  A
C445       C3119   1.500       .  S
C446        C447   1.429       .  A
C446       C3079   1.529       .  S
C447        C448   1.445       .  A
C447       C3016   1.515       .  S
C448        C449   1.431       .  A
C448       C3009   1.507       .  S
C449        C450   1.426       .  A
C449       C2996   1.514   1_565  S
C450       C2986   1.517   1_565  S
C451        C452   1.422       .  A
C451        C456   1.426       .  A
C451       C2956   1.506   1_556  S
C452        C453   1.425       .  A
C452       C3139   1.498       .  S
C453        C454   1.433       .  A
C453       C3096   1.508       .  S
C454        C455   1.436       .  A
C454       C2966   1.520       .  S
C455        C456   1.433       .  A
C455       C2979   1.508       .  S
C456       C2946   1.503   1_556  S
C457        C458   1.423       .  A
C457        C462   1.431       .  A
C457       C3539   1.512       .  S
C458        C459   1.427       .  A
C458       C3559   1.497       .  S
C459        C460   1.424       .  A
C459       C2936   1.505       .  S
C460        C461   1.434       .  A
C460       C2926   1.509       .  S
C461        C462   1.441       .  A
C461       C2916   1.517       .  S
C462       C2906   1.507       .  S
O463       Mg465   2.129       .  S
O463       Mg471   2.130       .  S
O463        C498   1.237       .  S
C464        O477   1.236       .  S
C464        O501   1.271       .  A
C464        H503   1.082       .  S
Mg465       O494   2.111       .  S
Mg465       O509   2.258       .  S
Mg465       O505   2.242       .  S
Mg465       O476   2.308       .  S
O466       Mg508   2.129       .  S
O466       Mg491   2.117       .  S
O466        C487   1.234       .  S
O467        C498   1.272       .  A
O467       Mg491   2.311       .  S
C468        C531   1.457       .  S
C468        O470   1.260       .  A
C468        O482   1.266       .  A
O469        C497   1.271       .  A
O469       Mg471   2.312       .  S
O470       Mg502   2.207       .  S
Mg471       O477   2.123       .  S
Mg471       O485   2.257       .  S
Mg471       O473   2.261       .  S
C472        C513   1.440       .  S
C472        O510   1.261       .  A
C472        O478   1.267       .  A
O473        C480   1.270       .  A
H474        C487   1.082       .  S
C475        O489   1.236       .  S
C475        O490   1.271       .  A
C475        H500   1.080       .  S
O476        C499   1.271       .  A
O477       Mg491   2.133       .  S
O478       Mg508   2.254       .  S
C479        C524   1.462       .  S
C479        O492   1.264       .  A
C479        O484   1.274       .  A
C480        C549   1.462       .  S
C480        O507   1.270       .  A
Mg481       O488   2.083       .  S
Mg481       O489   2.152       .  S
Mg481       O482   2.237       .  S
Mg481       O483   2.293       .  S
Mg481       O510   2.196       .  S
O483        C487   1.267       .  A
O484       Mg491   2.298       .  S
O485        C504   1.268       .  A
O486        C506   1.255       .  A
O486       Mg502   2.238       .  S
O488       Mg502   2.118       .  S
O488        C499   1.237       .  S
O489       Mg508   2.121       .  S
O490       Mg502   2.305       .  S
Mg491       O507   2.262       .  S
O492       Mg508   2.237       .  S
H493        C498   1.082       .  S
O494       Mg502   2.115       .  S
O494        C497   1.235       .  S
H495        C497   1.082       .  S
H496        C499   1.081       .  S
O501       Mg508   2.308       .  S
C504        C558   1.458       .  S
C504        O509   1.264       .  A
O505        C506   1.264       .  A
C506        C542   1.449       .  S
C511        C512   1.395       .  A
C511        C516   1.424       .  A
C511       C3176   1.486       .  S
C512        C513   1.379       .  A
C512        H517   1.086       .  S
C513        C514   1.383       .  A
C514        C515   1.398       .  A
C514        H518   1.086       .  S
C515        C516   1.425       .  A
C515       C2896   1.485       .  S
C516        H519   1.082       .  S
C520        C521   1.425       .  A
C520        C525   1.402       .  A
C520       C3166   1.489       .  S
C521        C522   1.423       .  A
C521        H526   1.083       .  S
C522        C523   1.405       .  A
C522       C2919   1.502       .  S
C523        C524   1.384       .  A
C523        H527   1.085       .  S
C524        C525   1.392       .  A
C525        H528   1.086       .  S
C529        C530   1.404       .  A
C529        C534   1.437       .  A
C529       C3219   1.507       .  S
C530        C531   1.387       .  A
C530        H535   1.085       .  S
C531        C532   1.382       .  A
C532        C533   1.394       .  A
C532        H536   1.084       .  S
C533        C534   1.435       .  A
C533       C2889   1.515       .  S
C534        H537   1.081       .  S
C538        C539   1.430       .  A
C538        C543   1.403       .  A
C538       C3209   1.492       .  S
C539        C540   1.436       .  A
C539        H544   1.078       .  S
C540        C541   1.406       .  A
C540       C2879   1.526       .  S
C541        C542   1.373       .  A
C541        H545   1.077       .  S
C542        C543   1.370       .  A
C543        H546   1.085       .  S
C547        C548   1.403       .  A
C547        C552   1.413       .  A
C547       C2909   1.477       .  S
C548        C549   1.389       .  A
C548        H553   1.084       .  S
C549        C550   1.392       .  A
C550        C551   1.402       .  A
C550        H554   1.085       .  S
C551        C552   1.415       .  A
C551       C2869   1.489       .  S
C552        H555   1.083       .  S
C556        C557   1.404       .  A
C556        C561   1.421       .  A
C556       C2856   1.495       .  S
C557        C558   1.388       .  A
C557        H562   1.086       .  S
C558        C559   1.385       .  A
C559        C560   1.403       .  A
C559        H563   1.086       .  S
C560        C561   1.424       .  A
C560       C2846   1.490       .  S
C561        H564   1.083       .  S
C565        C566   1.423       .  A
C565        C570   1.431       .  A
C565       C3599   1.503       .  S
C566        C567   1.427       .  A
C566       C3579   1.511       .  S
C567        C568   1.429       .  A
C567       C2836   1.494       .  S
C568        C569   1.428       .  A
C568       C2826   1.506       .  S
C569        C570   1.439       .  A
C569       C2876   1.506       .  S
C570       C2859   1.520       .  S
O571       Mg573   2.126       .  S
O571       Mg579   2.141       .  S
O571        C606   1.235       .  S
C572        O585   1.234       .  S
C572        O609   1.267       .  A
C572        H611   1.082       .  S
Mg573       O602   2.130       .  S
Mg573       O617   2.241       .  S
Mg573       O613   2.257       .  S
Mg573       O584   2.316       .  S
O574       Mg616   2.161       .  S
O574       Mg599   2.134       .  S
O574        C595   1.236       .  S
O575        C606   1.270       .  A
O575       Mg599   2.304       .  S
C576        C648   1.469       .  S
C576        O578   1.264       .  A
C576        O590   1.264       .  A
O577        C605   1.271       .  A
O577       Mg579   2.308       .  S
O578       Mg610   2.258       .  S
Mg579       O585   2.127       .  S
Mg579       O593   2.278       .  S
Mg579       O581   2.277       .  S
C580        C668   1.456       .  S
C580        O618   1.265       .  A
C580        O586   1.265       .  A
O581        C588   1.274       .  A
H582        C595   1.082       .  S
C583        O597   1.238       .  S
C583        O598   1.274       .  A
C583        H608   1.079       .  S
O584        C607   1.272       .  A
O585       Mg599   2.140       .  S
O586       Mg616   2.228       .  S
C587        C621   1.459       .  S
C587        O600   1.264       .  A
C587        O592   1.278       .  A
C588        C639   1.473       .  S
C588        O615   1.274       .  A
Mg589       O596   2.111       .  S
Mg589       O597   2.143       .  S
Mg589       O590   2.254       .  S
Mg589       O591   2.301       .  S
Mg589       O618   2.247       .  S
O591        C595   1.270       .  A
O592       Mg599   2.302       .  S
O593        C612   1.270       .  A
O594        C614   1.263       .  A
O594       Mg610   2.256       .  S
O596       Mg610   2.113       .  S
O596        C607   1.236       .  S
O597       Mg616   2.117       .  S
O598       Mg610   2.319       .  S
Mg599       O615   2.292       .  S
O600       Mg616   2.229       .  S
H601        C606   1.082       .  S
O602       Mg610   2.128       .  S
O602        C605   1.236       .  S
H603        C605   1.082       .  S
H604        C607   1.082       .  S
O609       Mg616   2.289       .  S
C612        C630   1.460       .  S
C612        O617   1.266       .  A
O613        C614   1.264       .  A
C614        C659   1.459       .  S
C619        C620   1.403       .  A
C619        C624   1.422       .  A
C619       C2959   1.485       .  S
C620        C621   1.392       .  A
C620        H625   1.086       .  S
C621        C622   1.381       .  A
C622        C623   1.405       .  A
C622        H626   1.084       .  S
C623        C624   1.421       .  A
C623       C2816   1.500       .  S
C624        H627   1.082       .  S
C628        C629   1.403       .  A
C628        C633   1.419       .  A
C628       C2999   1.485       .  S
C629        C630   1.390       .  A
C629        H634   1.085       .  S
C630        C631   1.394       .  A
C631        C632   1.402       .  A
C631        H635   1.085       .  S
C632        C633   1.420       .  A
C632       C2806   1.497       .  S
C633        H636   1.083       .  S
C637        C638   1.411       .  A
C637        C642   1.416       .  A
C637       C2989   1.510       .  S
C638        C639   1.396       .  A
C638        H643   1.081       .  S
C639        C640   1.393       .  A
C640        C641   1.403       .  A
C640        H644   1.085       .  S
C641        C642   1.413       .  A
C641       C2796   1.476       .  S
C642        H645   1.081       .  S
C646        C647   1.399       .  A
C646        C651   1.433       .  A
C646       C2939   1.521       .  S
C647        C648   1.388       .  A
C647        H652   1.082       .  S
C648        C649   1.389       .  A
C649        C650   1.408       .  A
C649        H653   1.085       .  S
C650        C651   1.432       .  A
C650       C2786   1.504       .  S
C651        H654   1.080       .  S
C655        C656   1.421       .  A
C655        C660   1.402       .  A
C655       C2766   1.497       .  S
C656        C657   1.424       .  A
C656        H661   1.082       .  S
C657        C658   1.405       .  A
C657       C2776   1.492       .  S
C658        C659   1.387       .  A
C658        H662   1.085       .  S
C659        C660   1.385       .  A
C660        H663   1.085       .  S
C664        C665   1.427       .  A
C664        C669   1.401       .  A
C664       C2929   1.486       .  S
C665        C666   1.427       .  A
C665        H670   1.082       .  S
C666        C667   1.400       .  A
C666       C2949   1.510       .  S
C667        C668   1.387       .  A
C667        H671   1.084       .  S
C668        C669   1.385       .  A
C669        H672   1.086       .  S
C673        C674   1.422       .  A
C673        C678   1.420       .  A
C673       C3619   1.504       .  S
C674        C675   1.427       .  A
C674       C3519   1.490       .  S
C675        C676   1.430       .  A
C675       C2756   1.512       .  S
C676        C677   1.430       .  A
C676       C2746   1.508       .  S
C677        C678   1.424       .  A
C677       C2809   1.504       .  S
C678       C2779   1.492       .  S
O679       Mg681   2.116       .  S
O679       Mg687   2.147       .  S
O679        C714   1.237       .  S
C680        O693   1.235       .  S
C680        O717   1.269       .  A
C680        H719   1.082       .  S
Mg681       O710   2.140       .  S
Mg681       O725   2.277       .  S
Mg681       O721   2.271       .  S
Mg681       O692   2.300       .  S
O682       Mg724   2.139       .  S
O682       Mg707   2.103       .  S
O682        C703   1.234       .  S
O683        C714   1.271       .  A
O683       Mg707   2.299       .  S
C684        C756   1.451       .  S
C684        O686   1.265       .  A
C684        O698   1.266       .  A
O685        C713   1.267       .  A
O685       Mg687   2.289       .  S
O686       Mg718   2.245       .  S
Mg687       O693   2.123       .  S
Mg687       O701   2.259       .  S
Mg687       O689   2.213       .  S
C688        C767   1.462       .  S
C688        O726   1.268       .  A
C688        O694   1.274       .  A
O689        C696   1.265       .  A
H690        C703   1.082       .  S
C691        O705   1.236       .  S
C691        O706   1.270       .  A
C691        H716   1.082       .  S
O692        C715   1.269       .  A
O693       Mg707   2.155       .  S
O694       Mg724   2.276       .  S
C695        C749   1.461       .  S
C695        O708   1.271       .  A
C695        O700   1.269       .  A
C696        C774   1.449       .  S
C696        O723   1.264       .  A
Mg697       O704   2.129       .  S
Mg697       O705   2.149       .  S
Mg697       O698   2.214       .  S
Mg697       O699   2.289       .  S
Mg697       O726   2.264       .  S
O699        C703   1.267       .  A
O700       Mg707   2.253       .  S
O701        C720   1.267       .  A
O702        C722   1.270       .  A
O702       Mg718   2.250       .  S
O704       Mg718   2.161       .  S
O704        C715   1.235       .  S
O705       Mg724   2.115       .  S
O706       Mg718   2.296       .  S
Mg707       O723   2.238       .  S
O708       Mg724   2.273       .  S
H709        C714   1.082       .  S
O710       Mg718   2.104       .  S
O710        C713   1.234       .  S
H711        C713   1.082       .  S
H712        C715   1.082       .  S
O717       Mg724   2.298       .  S
C720        C731   1.461       .  S
C720        O725   1.273       .  A
O721        C722   1.270       .  A
C722        C738   1.464       .  S
C727        C728   1.427       .  A
C727        C732   1.401       .  A
C727       C2829   1.489       .  S
C728        C729   1.427       .  A
C728        H733   1.082       .  S
C729        C730   1.408       .  A
C729       C3499   1.515       .  S
C730        C731   1.387       .  A
C730        H734   1.083       .  S
C731        C732   1.389       .  A
C732        H735   1.086       .  S
C736        C737   1.407       .  A
C736        C741   1.416       .  A
C736       C3489   1.477       .  S
C737        C738   1.391       .  A
C737        H742   1.086       .  S
C738        C739   1.391       .  A
C739        C740   1.403       .  A
C739        H743   1.085       .  S
C740        C741   1.416       .  A
C740       C2736   1.497       .  S
C741        H744   1.082       .  S
C745        C746   1.419       .  A
C745        C750   1.403       .  A
C745       C2726   1.496       .  S
C746        C747   1.418       .  A
C746        H751   1.083       .  S
C747        C748   1.403       .  A
C747       C2759   1.482       .  S
C748        C749   1.390       .  A
C748        H752   1.086       .  S
C749        C750   1.394       .  A
C750        H753   1.085       .  S
C754        C755   1.398       .  A
C754        C759   1.428       .  A
C754       C3329   1.508       .  S
C755        C756   1.382       .  A
C755        H760   1.085       .  S
C756        C757   1.383       .  A
C757        C758   1.405       .  A
C757        H761   1.086       .  S
C758        C759   1.428       .  A
C758       C2716   1.493       .  S
C759        H762   1.081       .  S
C763        C764   1.418       .  A
C763        C768   1.403       .  A
C763       C3339   1.481       .  S
C764        C765   1.417       .  A
C764        H769   1.083       .  S
C765        C766   1.406       .  A
C765       C2749   1.499       .  S
C766        C767   1.388       .  A
C766        H770   1.084       .  S
C767        C768   1.392       .  A
C768        H771   1.086       .  S
C772        C773   1.398       .  A
C772        C777   1.432       .  A
C772       C2839   1.513       .  S
C773        C774   1.381       .  A
C773        H778   1.085       .  S
C774        C775   1.381       .  A
C775        C776   1.404       .  A
C775        H779   1.086       .  S
C776        C777   1.433       .  A
C776       C2706   1.500       .  S
C777        H780   1.081       .  S
C781        C782   1.425       .  A
C781        C786   1.426       .  A
C781       C2886   1.503       .  S
C782        C783   1.433       .  A
C782       C2899   1.507       .  S
C783        C784   1.437       .  A
C783       C2819   1.513       .  S
C784        C785   1.426       .  A
C784       C2799   1.506       .  S
C785        C786   1.420       .  A
C785       C2719   1.502       .  S
C786       C2739   1.497       .  S
C787        C788   1.427       .  A
C787        C792   1.433       .  A
C787       C3106   1.506       .  S
C788        C789   1.421       .  A
C788       C3126   1.496       .  S
C789        C790   1.417       .  A
C789       C2686   1.504   1_554  S
C790        C791   1.429       .  A
C790       C2696   1.501   1_554  S
C791        C792   1.442       .  A
C791       C2669   1.506   1_545  S
C792       C2679   1.519   1_545  S
C793        C794   1.448       .  A
C793        C798   1.436       .  A
C793       C2636   1.517       .  S
C794        C795   1.450       .  A
C794       C3609   1.568       .  S
C795        C796   1.435       .  A
C795       C3549   1.479       .  S
C796        C797   1.424       .  A
C796       C2656   1.522       .  S
C797        C798   1.428       .  A
C797       C2646   1.521       .  S
C798       C2626   1.494       .  S
C799        C800   1.429       .  A
C799        C804   1.422       .  A
C799       C2596   1.502       .  S
C800        C801   1.435       .  A
C800       C3566   1.512       .  S
C801        C802   1.434       .  A
C801       C3509   1.514       .  S
C802        C803   1.429       .  A
C802       C2616   1.502       .  S
C803        C804   1.428       .  A
C803       C2606   1.502       .  S
C804       C2586   1.510       .  S
C805        C806   1.422       .  A
C805        C810   1.429       .  A
C805       C3589   1.511       .  S
C806        C807   1.427       .  A
C806       C3529   1.505       .  S
C807        C808   1.431       .  A
C807       C2546   1.499       .  S
C808        C809   1.428       .  A
C808       C2556   1.506       .  S
C809        C810   1.429       .  A
C809       C2569   1.512       .  S
C810       C2576   1.492       .  S
C811        C812   1.428       .  A
C811        C816   1.420       .  A
C811       C2536   1.499       .  S
C812        C813   1.432       .  A
C812       C2486   1.510       .  S
C813        C814   1.432       .  A
C813       C2496   1.514       .  S
C814        C815   1.429       .  A
C814       C2506   1.496       .  S
C815        C816   1.423       .  A
C815       C2516   1.511       .  S
C816       C2526   1.496       .  S
C817        C818   1.431       .  A
C817        C822   1.421       .  A
C817       C2476   1.494       .  S
C818        C819   1.431       .  A
C818       C3266   1.517       .  S
C819        C820   1.428       .  A
C819       C3256   1.507       .  S
C820        C821   1.427       .  A
C820       C2446   1.500   1_455  S
C821        C822   1.425       .  A
C821       C2456   1.497   1_455  S
C822       C2466   1.508       .  S
C823        C824   1.437       .  A
C823        C828   1.431       .  A
C823       C3419   1.523       .  S
C824        C825   1.429       .  A
C824       C2406   1.499       .  S
C825        C826   1.421       .  A
C825       C2416   1.504       .  S
C826        C827   1.430       .  A
C826       C2426   1.512   1_455  S
C827        C828   1.434       .  A
C827       C2439   1.491   1_455  S
C828       C3379   1.519       .  S
O829       Mg831   2.131       .  S
O829       Mg837   2.142       .  S
O829        C864   1.238       .  S
C830        O843   1.235       .  S
C830        O867   1.270       .  A
C830        H869   1.082       .  S
Mg831       O860   2.129       .  S
Mg831       O875   2.229       .  S
Mg831       O871   2.284       .  S
Mg831       O842   2.318       .  S
O832       Mg874   2.152       .  S
O832       Mg857   2.125       .  S
O832        C853   1.235       .  S
O833        C864   1.274       .  A
O833       Mg857   2.317       .  S
C834        C917   1.455       .  S
C834        O836   1.262       .  A
C834        O848   1.261       .  A
O835        C863   1.270       .  A
O835       Mg837   2.312       .  S
O836       Mg868   2.249       .  S
Mg837       O843   2.130       .  S
Mg837       O851   2.289       .  S
Mg837       O839   2.289       .  S
C838        C899   1.465       .  S
C838        O876   1.265       .  A
C838        O844   1.274       .  A
O839        C846   1.274       .  A
H840        C853   1.082       .  S
C841        O855   1.237       .  S
C841        O856   1.271       .  A
C841        H866   1.079       .  S
O842        C865   1.271       .  A
O843       Mg857   2.129       .  S
O844       Mg874   2.294       .  S
C845        C888   1.454       .  S
C845        O858   1.267       .  A
C845        O850   1.270       .  A
C846        C906   1.463       .  S
C846        O873   1.266       .  A
Mg847       O854   2.121       .  S
Mg847       O855   2.122       .  S
Mg847       O848   2.224       .  S
Mg847       O849   2.296       .  S
Mg847       O876   2.248       .  S
O849        C853   1.269       .  A
O850       Mg857   2.259       .  S
O851        C870   1.272       .  A
O852        C872   1.262       .  A
O852       Mg868   2.232       .  S
O854       Mg868   2.127       .  S
O854        C865   1.235       .  S
O855       Mg874   2.091       .  S
O856       Mg868   2.306       .  S
Mg857       O873   2.254       .  S
O858       Mg874   2.235       .  S
H859        C864   1.082       .  S
O860       Mg868   2.126       .  S
O860        C863   1.235       .  S
H861        C863   1.084       .  S
H862        C865   1.083       .  S
O867       Mg874   2.302       .  S
C870        C879   1.469       .  S
C870        O875   1.266       .  A
O871        C872   1.264       .  A
C872        C924   1.466       .  S
C877        C878   1.404       .  A
C877        C882   1.417       .  A
C877       C2559   1.480       .  S
C878        C879   1.389       .  A
C878        H883   1.086       .  S
C879        C880   1.397       .  A
C880        C881   1.406       .  A
C880        H884   1.081       .  S
C881        C882   1.422       .  A
C881       C2396   1.516       .  S
C882        H885   1.080       .  S
C886        C887   1.403       .  A
C886        C891   1.425       .  A
C886       C2659   1.485       .  S
C887        C888   1.385       .  A
C887        H892   1.086       .  S
C888        C889   1.387       .  A
C889        C890   1.399       .  A
C889        H893   1.086       .  S
C890        C891   1.423       .  A
C890       C2389   1.497       .  S
C891        H894   1.082       .  S
C895        C896   1.427       .  A
C895        C900   1.404       .  A
C895       C2429   1.493       .  S
C896        C897   1.427       .  A
C896        H901   1.082       .  S
C897        C898   1.407       .  A
C897       C2649   1.514       .  S
C898        C899   1.386       .  A
C898        H902   1.083       .  S
C899        C900   1.391       .  A
C900        H903   1.086       .  S
C904        C905   1.406       .  A
C904        C909   1.422       .  A
C904       C2549   1.503       .  S
C905        C906   1.386       .  A
C905        H910   1.083       .  S
C906        C907   1.391       .  A
C907        C908   1.404       .  A
C907        H911   1.085       .  S
C908        C909   1.420       .  A
C908       C2376   1.486       .  S
C909        H912   1.082       .  S
C913        C914   1.423       .  A
C913        C918   1.396       .  A
C913       C2436   1.502       .  S
C914        C915   1.426       .  A
C914        H919   1.082       .  S
C915        C916   1.403       .  A
C915       C2539   1.483       .  S
C916        C917   1.386       .  A
C916        H920   1.086       .  S
C917        C918   1.383       .  A
C918        H921   1.085       .  S
C922        C923   1.398       .  A
C922        C927   1.423       .  A
C922       C2529   1.507       .  S
C923        C924   1.386       .  A
C923        H928   1.083       .  S
C924        C925   1.393       .  A
C925        C926   1.407       .  A
C925        H929   1.085       .  S
C926        C927   1.425       .  A
C926       C2366   1.488       .  S
C927        H930   1.082       .  S
C931        C932   1.423       .  A
C931        C936   1.421       .  A
C931       C2329   1.500       .  S
C932        C933   1.426       .  A
C932       C2386   1.504       .  S
C933        C934   1.430       .  A
C933       C2379   1.499       .  S
C934        C935   1.435       .  A
C934       C2356   1.509       .  S
C935        C936   1.428       .  A
C935       C2346   1.513       .  S
C936       C2336   1.500       .  S
C937        C938   1.437       .  A
C937        C942   1.424       .  A
C937       C2299   1.513   1_565  S
C938        C939   1.446       .  A
C938       C3059   1.504       .  S
C939        C940   1.434       .  A
C939       C3039   1.527       .  S
C940        C941   1.426       .  A
C940       C2309   1.508   1_556  S
C941        C942   1.428       .  A
C941       C2319   1.506   1_556  S
C942       C2286   1.508   1_565  S
C943        C944   1.427       .  A
C943        C948   1.421       .  A
C943       C2246   1.500       .  S
C944        C945   1.434       .  A
C944       C3289   1.499       .  S
C945        C946   1.427       .  A
C945       C3239   1.510       .  S
C946        C947   1.419       .  A
C946       C2276   1.509   1_554  S
C947        C948   1.422       .  A
C947       C2266   1.492   1_554  S
C948       C2256   1.501       .  S
O949       Mg951   2.121   1_556  S
O949       Mg957   2.160       .  S
O949        C984   1.234       .  S
C950        O963   1.235       .  S
C950        O987   1.269       .  A
C950        H989   1.082       .  S
Mg951       O980   2.153       .  S
Mg951       O995   2.254       .  S
Mg951       O991   2.224       .  S
Mg951       O962   2.276       .  S
O952       Mg994   2.141       .  S
O952       Mg977   2.110       .  S
O952        C973   1.233       .  S
O953        C984   1.267       .  A
O953       Mg977   2.290       .  S
C954       C1044   1.465       .  S
C954        O956   1.266       .  A
C954        O968   1.271       .  A
O955        C983   1.264       .  A
O955       Mg957   2.278   1_554  S
O956       Mg988   2.194       .  S
Mg957       O963   2.140       .  S
Mg957       O971   2.220       .  S
Mg957       O959   2.260       .  S
C958       C1037   1.469       .  S
C958        O996   1.267   1_556  A
C958        O964   1.277       .  A
O959        C966   1.267       .  A
H960        C973   1.082       .  S
C961        O975   1.235       .  S
C961        O976   1.268       .  A
C961        H986   1.082       .  S
O962        C985   1.264       .  A
O963       Mg977   2.151       .  S
O964       Mg994   2.321       .  S
C965        C999   1.472       .  S
C965        O978   1.274       .  A
C965        O970   1.267       .  A
C966       C1008   1.461       .  S
C966        O993   1.262       .  A
Mg967       O974   2.105       .  S
Mg967       O975   2.162       .  S
Mg967       O968   2.278       .  S
Mg967       O969   2.282   1_554  S
Mg967       O996   2.187       .  S
O969        C973   1.265       .  A
O970       Mg977   2.274       .  S
O971        C990   1.269   1_556  A
O972        C992   1.270       .  A
O972       Mg988   2.267       .  S
O974       Mg988   2.143       .  S
O974        C985   1.232       .  S
O975       Mg994   2.132   1_554  S
O976       Mg988   2.286       .  S
Mg977       O993   2.177       .  S
O978       Mg994   2.252       .  S
H979        C984   1.082       .  S
O980       Mg988   2.096       .  S
O980        C983   1.232       .  S
H981        C983   1.082       .  S
H982        C985   1.082       .  S
O987       Mg994   2.304       .  S
C990       C1019   1.466       .  S
C990        O995   1.268       .  A
O991        C992   1.269       .  A
C992       C1026   1.467       .  S
C997        C998   1.403       .  A
C997       C1002   1.420       .  A
C997       C2969   1.497       .  S
C998        C999   1.384       .  A
C998       H1003   1.086       .  S
C999       C1000   1.398       .  A
C1000      C1001   1.407       .  A
C1000      H1004   1.085       .  S
C1001      C1002   1.424       .  A
C1001      C2236   1.493       .  S
C1002      H1005   1.083       .  S
C1006      C1007   1.405       .  A
C1006      C1011   1.439       .  A
C1006      C2296   1.514       .  S
C1007      C1008   1.389       .  A
C1007      H1012   1.085       .  S
C1008      C1009   1.387       .  A
C1009      C1010   1.394       .  A
C1009      H1013   1.086       .  S
C1010      C1011   1.435       .  A
C1010      C2229   1.511       .  S
C1011      H1014   1.082       .  S
C1015      C1016   1.423       .  A
C1015      C1020   1.398   1_554  A
C1015      C2289   1.490   1_554  S
C1016      C1017   1.429       .  A
C1016      H1021   1.082       .  S
C1017      C1018   1.407       .  A
C1017      C3709   1.508       .  S
C1018      C1019   1.393       .  A
C1018      H1022   1.084       .  S
C1019      C1020   1.383   1_554  A
C1020      H1023   1.086       .  S
C1024      C1025   1.399       .  A
C1024      C1029   1.425       .  A
C1024      C3719   1.490       .  S
C1025      C1026   1.385       .  A
C1025      H1030   1.086       .  S
C1026      C1027   1.393       .  A
C1027      C1028   1.406       .  A
C1027      H1031   1.084       .  S
C1028      C1029   1.427       .  A
C1028      C2216   1.506       .  S
C1029      H1032   1.082       .  S
C1033      C1034   1.418       .  A
C1033      C1038   1.407       .  A
C1033      C2976   1.481       .  S
C1034      C1035   1.417       .  A
C1034      H1039   1.083       .  S
C1035      C1036   1.400       .  A
C1035      C2259   1.493       .  S
C1036      C1037   1.392       .  A
C1036      H1040   1.085       .  S
C1037      C1038   1.389       .  A
C1038      H1041   1.085       .  S
C1042      C1043   1.406       .  A
C1042      C1047   1.428       .  A
C1042      C2249   1.500       .  S
C1043      C1044   1.388       .  A
C1043      H1048   1.084       .  S
C1044      C1045   1.385       .  A
C1045      C1046   1.400       .  A
C1045      H1049   1.085       .  S
C1046      C1047   1.424       .  A
C1046      C2206   1.498       .  S
C1047      H1050   1.082       .  S
C1051      C1052   1.426       .  A
C1051      C1056   1.432       .  A
C1051      C2789   1.513       .  S
C1052      C1053   1.433       .  A
C1052      C2769   1.504       .  S
C1053      C1054   1.431       .  A
C1053      C2196   1.509       .  S
C1054      C1055   1.430       .  A
C1054      C2186   1.509       .  S
C1055      C1056   1.431       .  A
C1055      C2219   1.504       .  S
C1056      C2209   1.502       .  S
O1057     Mg1059   2.136   1_545  S
O1057     Mg1065   2.161       .  S
O1057      C1092   1.233       .  S
C1058      O1071   1.236       .  S
C1058      O1095   1.268       .  A
C1058      H1097   1.082       .  S
Mg1059     O1088   2.147       .  S
Mg1059     O1103   2.248   1_565  S
Mg1059     O1099   2.276       .  S
Mg1059     O1070   2.312       .  S
O1060     Mg1102   2.147       .  S
O1060     Mg1085   2.113       .  S
O1060      C1081   1.237   1_545  S
O1061      C1092   1.266       .  A
O1061     Mg1085   2.292       .  S
C1062      C1107   1.477       .  S
C1062      O1064   1.274       .  A
C1062      O1076   1.271       .  A
O1063      C1091   1.272       .  A
O1063     Mg1065   2.311       .  S
O1064     Mg1096   2.294       .  S
Mg1065     O1071   2.102       .  S
Mg1065     O1079   2.266       .  S
Mg1065     O1067   2.320       .  S
C1066      C1152   1.450       .  S
C1066      O1104   1.266       .  A
C1066      O1072   1.256   1_565  A
O1067      C1074   1.280       .  A
H1068      C1081   1.080       .  S
C1069      O1083   1.233       .  S
C1069      O1084   1.268   1_545  A
C1069      H1094   1.082       .  S
O1070      C1093   1.272       .  A
O1071     Mg1085   2.145       .  S
O1072     Mg1102   2.227       .  S
C1073      C1125   1.450       .  S
C1073      O1086   1.260       .  A
C1073      O1078   1.264       .  A
C1074      C1143   1.466       .  S
C1074      O1101   1.264       .  A
Mg1075     O1082   2.129       .  S
Mg1075     O1083   2.112   1_565  S
Mg1075     O1076   2.301       .  S
Mg1075     O1077   2.316       .  S
Mg1075     O1104   2.244       .  S
O1077      C1081   1.272       .  A
O1078     Mg1085   2.220       .  S
O1079      C1098   1.270       .  A
O1080      C1100   1.272       .  A
O1080     Mg1096   2.271       .  S
O1082     Mg1096   2.131       .  S
O1082      C1093   1.237       .  S
O1083     Mg1102   2.126       .  S
O1084     Mg1096   2.305       .  S
Mg1085     O1101   2.231       .  S
O1086     Mg1102   2.208       .  S
H1087      C1092   1.082   1_565  S
O1088     Mg1096   2.153       .  S
O1088      C1091   1.236   1_565  S
H1089      C1091   1.082       .  S
H1090      C1093   1.082       .  S
O1095     Mg1102   2.286       .  S
C1098      C1136   1.468       .  S
C1098      O1103   1.271       .  A
O1099      C1100   1.269       .  A
C1100      C1118   1.463       .  S
C1105      C1106   1.410       .  A
C1105      C1110   1.414       .  A
C1105      C3019   1.494       .  S
C1106      C1107   1.402       .  A
C1106      H1111   1.084       .  S
C1107      C1108   1.398       .  A
C1108      C1109   1.404       .  A
C1108      H1112   1.085       .  S
C1109      C1110   1.412       .  A
C1109      C2359   1.484       .  S
C1110      H1113   1.083       .  S
C1114      C1115   1.421       .  A
C1114      C1119   1.403       .  A
C1114      C2306   1.486       .  S
C1115      C1116   1.423       .  A
C1115      H1120   1.082       .  S
C1116      C1117   1.407       .  A
C1116      C2349   1.510       .  S
C1117      C1118   1.388       .  A
C1117      H1121   1.083       .  S
C1118      C1119   1.393       .  A
C1119      H1122   1.085       .  S
C1123      C1124   1.394       .  A
C1123      C1128   1.436       .  A
C1123      C2199   1.513       .  S
C1124      C1125   1.381       .  A
C1124      H1129   1.086       .  S
C1125      C1126   1.386       .  A
C1126      C1127   1.404       .  A
C1126      H1130   1.086       .  S
C1127      C1128   1.439       .  A
C1127      C2179   1.509       .  S
C1128      H1131   1.082       .  S
C1132      C1133   1.426       .  A
C1132      C1137   1.409       .  A
C1132      C3639   1.489       .  S
C1133      C1134   1.426       .  A
C1133      H1138   1.080       .  S
C1134      C1135   1.399       .  A
C1134      C2316   1.514       .  S
C1135      C1136   1.391       .  A
C1135      H1139   1.082       .  S
C1136      C1137   1.393       .  A
C1137      H1140   1.086       .  S
C1141      C1142   1.405       .  A
C1141      C1146   1.418       .  A
C1141      C3629   1.496       .  S
C1142      C1143   1.382       .  A
C1142      H1147   1.085       .  S
C1143      C1144   1.396       .  A
C1144      C1145   1.407       .  A
C1144      H1148   1.085       .  S
C1145      C1146   1.421       .  A
C1145      C2189   1.488       .  S
C1146      H1149   1.083       .  S
C1150      C1151   1.406       .  A
C1150      C1155   1.430       .  A
C1150      C3006   1.513       .  S
C1151      C1152   1.372       .  A
C1151      H1156   1.080       .  S
C1152      C1153   1.373       .  A
C1153      C1154   1.401       .  A
C1153      H1157   1.085   1_565  S
C1154      C1155   1.426       .  A
C1154      C2166   1.484       .  S
C1155      H1158   1.080       .  S
C1159      C1160   1.437       .  A
C1159      C1164   1.428       .  A
C1159      C3399   1.506       .  S
C1160      C1161   1.428       .  A
C1160      C3409   1.503       .  S
C1161      C1162   1.425       .  A
C1161      C2176   1.510       .  S
C1162      C1163   1.427   1_545  A
C1162      C2169   1.495       .  S
C1163      C1164   1.418   1_565  A
C1163      C2399   1.502       .  S
C1164      C2369   1.507   1_545  S
O1165     Mg1167   2.123       .  S
O1165     Mg1173   2.148       .  S
O1165      C1200   1.234       .  S
C1166      O1179   1.235       .  S
C1166      O1203   1.269       .  A
C1166      H1205   1.082       .  S
Mg1167     O1196   2.143       .  S
Mg1167     O1211   2.227       .  S
Mg1167     O1207   2.245       .  S
Mg1167     O1178   2.289       .  S
O1168     Mg1210   2.136       .  S
O1168     Mg1193   2.115       .  S
O1168      C1189   1.238       .  S
O1169      C1200   1.269       .  A
O1169     Mg1193   2.302       .  S
C1170      C1253   1.463       .  S
C1170      O1172   1.272       .  A
C1170      O1184   1.270       .  A
O1171      C1199   1.269       .  A
O1171     Mg1173   2.292       .  S
O1172     Mg1204   2.269       .  S
Mg1173     O1179   2.101       .  S
Mg1173     O1187   2.217       .  S
Mg1173     O1175   2.259       .  S
C1174      C1235   1.455       .  S
C1174      O1212   1.265       .  A
C1174      O1180   1.264       .  A
O1175      C1182   1.268       .  A
H1176      C1189   1.082       .  S
C1177      O1191   1.235       .  S
C1177      O1192   1.269       .  A
C1177      H1202   1.083       .  S
O1178      C1201   1.268       .  A
O1179     Mg1193   2.127       .  S
O1180     Mg1210   2.232       .  S
C1181      C1215   1.461       .  S
C1181      O1194   1.265       .  A
C1181      O1186   1.268       .  A
C1182      C1242   1.459       .  S
C1182      O1209   1.266       .  A
Mg1183     O1190   2.108       .  S
Mg1183     O1191   2.124       .  S
Mg1183     O1184   2.267       .  S
Mg1183     O1185   2.316       .  S
Mg1183     O1212   2.248       .  S
O1185      C1189   1.274       .  A
O1186     Mg1193   2.246       .  S
O1187      C1206   1.263       .  A
O1188      C1208   1.276       .  A
O1188     Mg1204   2.291       .  S
O1190     Mg1204   2.141       .  S
O1190      C1201   1.235       .  S
O1191     Mg1210   2.118       .  S
O1192     Mg1204   2.300       .  S
Mg1193     O1209   2.252       .  S
O1194     Mg1210   2.243       .  S
H1195      C1200   1.080       .  S
O1196     Mg1204   2.110       .  S
O1196      C1199   1.236       .  S
H1197      C1199   1.082       .  S
H1198      C1201   1.082       .  S
O1203     Mg1210   2.297       .  S
C1206      C1226   1.442       .  S
C1206      O1211   1.265       .  A
O1207      C1208   1.267       .  A
C1208      C1262   1.463       .  S
C1213      C1214   1.406       .  A
C1213      C1218   1.424       .  A
C1213      C2619   1.495       .  S
C1214      C1215   1.387       .  A
C1214      H1219   1.086       .  S
C1215      C1216   1.385       .  A
C1216      C1217   1.401       .  A
C1216      H1220   1.084       .  S
C1217      C1218   1.426       .  A
C1217      C2156   1.506       .  S
C1218      H1221   1.081       .  S
C1222      C1223   1.424       .  A
C1222      C1227   1.399       .  A
C1222      C2629   1.482       .  S
C1223      C1224   1.422       .  A
C1223      H1228   1.082       .  S
C1224      C1225   1.398       .  A
C1224      C2459   1.491       .  S
C1225      C1226   1.380       .  A
C1225      H1229   1.086       .  S
C1226      C1227   1.380       .  A
C1227      H1230   1.086       .  S
C1231      C1232   1.420       .  A
C1231      C1236   1.401       .  A
C1231      C2609   1.497       .  S
C1232      C1233   1.424       .  A
C1232      H1237   1.082       .  S
C1233      C1234   1.404       .  A
C1233      C2269   1.486       .  S
C1234      C1235   1.382       .  A
C1234      H1238   1.086       .  S
C1235      C1236   1.385       .  A
C1236      H1239   1.085       .  S
C1240      C1241   1.397       .  A
C1240      C1245   1.428       .  A
C1240      C2639   1.502       .  S
C1241      C1242   1.390       .  A
C1241      H1246   1.085       .  S
C1242      C1243   1.394       .  A
C1243      C1244   1.403       .  A
C1243      H1247   1.085       .  S
C1244      C1245   1.428       .  A
C1244      C2146   1.498       .  S
C1245      H1248   1.083       .  S
C1249      C1250   1.420       .  A
C1249      C1254   1.404       .  A
C1249      C2279   1.497       .  S
C1250      C1251   1.418       .  A
C1250      H1255   1.083       .  S
C1251      C1252   1.402       .  A
C1251      C2499   1.483       .  S
C1252      C1253   1.389       .  A
C1252      H1256   1.086       .  S
C1253      C1254   1.397       .  A
C1254      H1257   1.085       .  S
C1258      C1259   1.422       .  A
C1258      C1263   1.404       .  A
C1258      C2449   1.489       .  S
C1259      C1260   1.421       .  A
C1259      H1264   1.083       .  S
C1260      C1261   1.406       .  A
C1260      C2489   1.501       .  S
C1261      C1262   1.385       .  A
C1261      H1265   1.084       .  S
C1262      C1263   1.389       .  A
C1263      H1266   1.086       .  S
C1267      C1268   1.424       .  A
C1267      C1272   1.435       .  A
C1267      C2226   1.515       .  S
C1268      C1269   1.429       .  A
C1268      C2239   1.516       .  S
C1269      C1270   1.431       .  A
C1269      C2159   1.490       .  S
C1270      C1271   1.431       .  A
C1270      C2149   1.513       .  S
C1271      C1272   1.444       .  A
C1271      C2139   1.522       .  S
C1272      C2126   1.504       .  S
C1273      C1274   1.421       .  A
C1273      C1278   1.419   1_565  A
C1273      C2089   1.510   1_565  S
C1274      C1275   1.430       .  A
C1274      C3389   1.492       .  S
C1275      C1276   1.430   1_655  A
C1275      C3369   1.502       .  S
C1276      C1277   1.438   1_455  A
C1276      C2116   1.526       .  S
C1277      C1278   1.430   1_565  A
C1277      C2109   1.501   1_655  S
C1278      C2099   1.503       .  S
O1279     Mg1281   2.134   1_455  S
O1279     Mg1287   2.148       .  S
O1279      C1314   1.237       .  S
C1280      O1293   1.235       .  S
C1280      O1317   1.271       .  A
C1280      H1319   1.081       .  S
Mg1281     O1310   2.169       .  S
Mg1281     O1325   2.238       .  S
Mg1281     O1321   2.205       .  S
Mg1281     O1292   2.280       .  S
O1282     Mg1324   2.136       .  S
O1282     Mg1307   2.102       .  S
O1282      C1303   1.231       .  S
O1283      C1314   1.273       .  A
O1283     Mg1307   2.319       .  S
C1284      C1349   1.473       .  S
C1284      O1286   1.270       .  A
C1284      O1298   1.271       .  A
O1285      C1313   1.266       .  A
O1285     Mg1287   2.296   1_655  S
O1286     Mg1318   2.235       .  S
Mg1287     O1293   2.122       .  S
Mg1287     O1301   2.203       .  S
Mg1287     O1289   2.233       .  S
C1288      C1340   1.472       .  S
C1288      O1326   1.267   1_455  A
C1288      O1294   1.277       .  A
O1289      C1296   1.262       .  A
H1290      C1303   1.082       .  S
C1291      O1305   1.233       .  S
C1291      O1306   1.266       .  A
C1291      H1316   1.082       .  S
O1292      C1315   1.262       .  A
O1293     Mg1307   2.126       .  S
O1294     Mg1324   2.324       .  S
C1295      C1356   1.472       .  S
C1295      O1308   1.276       .  A
C1295      O1300   1.264       .  A
C1296      C1365   1.444       .  S
C1296      O1323   1.260       .  A
Mg1297     O1304   2.107       .  S
Mg1297     O1305   2.175       .  S
Mg1297     O1298   2.279       .  S
Mg1297     O1299   2.271   1_655  S
Mg1297     O1326   2.170       .  S
O1299      C1303   1.263       .  A
O1300     Mg1307   2.264       .  S
O1301      C1320   1.263       .  A
O1302      C1322   1.269       .  A
O1302     Mg1318   2.249       .  S
O1304     Mg1318   2.148       .  S
O1304      C1315   1.230       .  S
O1305     Mg1324   2.147   1_655  S
O1306     Mg1318   2.283       .  S
Mg1307     O1323   2.193       .  S
O1308     Mg1324   2.271       .  S
H1309      C1314   1.084       .  S
O1310     Mg1318   2.122       .  S
O1310      C1313   1.232       .  S
H1311      C1313   1.082       .  S
H1312      C1315   1.082       .  S
O1317     Mg1324   2.311       .  S
C1320      C1376   1.459       .  S
C1320      O1325   1.263   1_455  A
O1321      C1322   1.264       .  A
C1322      C1329   1.454       .  S
C1327      C1328   1.397       .  A
C1327      C1332   1.432       .  A
C1327      C3469   1.487       .  S
C1328      C1329   1.368       .  A
C1328      H1333   1.086       .  S
C1329      C1330   1.384       .  A
C1330      C1331   1.410       .  A
C1330      H1334   1.080       .  S
C1331      C1332   1.435       .  A
C1331      C2136   1.528       .  S
C1332      H1335   1.080       .  S
C1336      C1337   1.417   1_655  A
C1336      C1341   1.395       .  A
C1336      C2096   1.502       .  S
C1337      C1338   1.420       .  A
C1337      H1342   1.081       .  S
C1338      C1339   1.409       .  A
C1338      C3699   1.477       .  S
C1339      C1340   1.390       .  A
C1339      H1343   1.084       .  S
C1340      C1341   1.392   1_455  A
C1341      H1344   1.083       .  S
C1345      C1346   1.415       .  A
C1345      C1350   1.409       .  A
C1345      C2086   1.486       .  S
C1346      C1347   1.411       .  A
C1346      H1351   1.083       .  S
C1347      C1348   1.401       .  A
C1347      C2129   1.481       .  S
C1348      C1349   1.387       .  A
C1348      H1352   1.086       .  S
C1349      C1350   1.401       .  A
C1350      H1353   1.085       .  S
C1354      C1355   1.403       .  A
C1354      C1359   1.429       .  A
C1354      C3689   1.507       .  S
C1355      C1356   1.380       .  A
C1355      H1360   1.085       .  S
C1356      C1357   1.397       .  A
C1357      C1358   1.409       .  A
C1357      H1361   1.084       .  S
C1358      C1359   1.433       .  A
C1358      C2076   1.511       .  S
C1359      H1362   1.082       .  S
C1363      C1364   1.399       .  A
C1363      C1368   1.418       .  A
C1363      C2479   1.481       .  S
C1364      C1365   1.387       .  A
C1364      H1369   1.086       .  S
C1365      C1366   1.378       .  A
C1366      C1367   1.397       .  A
C1366      H1370   1.087       .  S
C1367      C1368   1.417       .  A
C1367      C2066   1.472       .  S
C1368      H1371   1.083       .  S
C1372      C1373   1.436   1_655  A
C1372      C1377   1.403       .  A
C1372      C3479   1.505       .  S
C1373      C1374   1.433       .  A
C1373      H1378   1.082       .  S
C1374      C1375   1.396       .  A
C1374      C2469   1.507       .  S
C1375      C1376   1.379       .  A
C1375      H1379   1.086       .  S
C1376      C1377   1.390   1_455  A
C1377      H1380   1.085       .  S
C1381      C1382   1.417       .  A
C1381      C1386   1.429       .  A
C1381      C2709   1.505       .  S
C1382      C1383   1.425       .  A
C1382      C2729   1.507       .  S
C1383      C1384   1.430       .  A
C1383      C2056   1.506       .  S
C1384      C1385   1.427       .  A
C1384      C2046   1.498       .  S
C1385      C1386   1.430       .  A
C1385      C2079   1.516       .  S
C1386      C2069   1.491       .  S
O1387     Mg1389   2.112   1_565  S
O1387     Mg1395   2.141       .  S
O1387      C1422   1.235       .  S
C1388      O1401   1.236       .  S
C1388      O1425   1.272       .  A
C1388      H1427   1.083       .  S
Mg1389     O1418   2.137       .  S
Mg1389     O1433   2.311   1_545  S
Mg1389     O1429   2.264       .  S
Mg1389     O1400   2.312       .  S
O1390     Mg1432   2.112       .  S
O1390     Mg1415   2.123       .  S
O1390      C1411   1.234   1_565  S
O1391      C1422   1.268       .  A
O1391     Mg1415   2.288       .  S
C1392      C1466   1.464       .  S
C1392      O1394   1.270       .  A
C1392      O1406   1.267       .  A
O1393      C1421   1.269       .  A
O1393     Mg1395   2.298       .  S
O1394     Mg1426   2.280       .  S
Mg1395     O1401   2.118       .  S
Mg1395     O1409   2.225       .  S
Mg1395     O1397   2.248       .  S
C1396      C1475   1.469       .  S
C1396      O1434   1.267       .  A
C1396      O1402   1.270       .  A
O1397      C1404   1.265       .  A
H1398      C1411   1.081       .  S
C1399      O1413   1.236       .  S
C1399      O1414   1.272       .  A
C1399      H1424   1.082   1_545  S
O1400      C1423   1.273       .  A
O1401     Mg1415   2.141       .  S
O1402     Mg1432   2.292   1_545  S
C1403      C1457   1.457       .  S
C1403      O1416   1.266       .  A
C1403      O1408   1.258       .  A
C1404      C1437   1.442       .  S
C1404      O1431   1.260       .  A
Mg1405     O1412   2.139       .  S
Mg1405     O1413   2.135       .  S
Mg1405     O1406   2.256       .  S
Mg1405     O1407   2.308       .  S
Mg1405     O1434   2.247       .  S
O1407      C1411   1.269       .  A
O1408     Mg1415   2.229       .  S
O1409      C1428   1.264       .  A
O1410      C1430   1.274       .  A
O1410     Mg1426   2.280       .  S
O1412     Mg1426   2.141       .  S
O1412      C1423   1.238       .  S
O1413     Mg1432   2.132   1_545  S
O1414     Mg1426   2.312       .  S
Mg1415     O1431   2.198       .  S
O1416     Mg1432   2.249       .  S
H1417      C1422   1.081   1_545  S
O1418     Mg1426   2.129       .  S
O1418      C1421   1.234   1_545  S
H1419      C1421   1.082   1_545  S
H1420      C1423   1.082       .  S
O1425     Mg1432   2.319       .  S
C1428      C1446   1.463       .  S
C1428      O1433   1.277       .  A
O1429      C1430   1.270       .  A
C1430      C1482   1.466       .  S
C1435      C1436   1.397       .  A
C1435      C1440   1.427       .  A
C1435      C3349   1.492       .  S
C1436      C1437   1.379       .  A
C1436      H1441   1.086       .  S
C1437      C1438   1.383       .  A
C1438      C1439   1.398       .  A
C1438      H1442   1.086       .  S
C1439      C1440   1.428       .  A
C1439      C2036   1.489       .  S
C1440      H1443   1.082       .  S
C1444      C1445   1.404       .  A
C1444      C1449   1.431   1_565  A
C1444      C3356   1.500       .  S
C1445      C1446   1.391       .  A
C1445      H1450   1.086       .  S
C1446      C1447   1.382       .  A
C1447      C1448   1.406   1_565  A
C1447      H1451   1.085       .  S
C1448      C1449   1.428       .  A
C1448      C2026   1.508       .  S
C1449      H1452   1.082       .  S
C1453      C1454   1.433       .  A
C1453      C1458   1.406       .  A
C1453      C2119   1.514       .  S
C1454      C1455   1.434       .  A
C1454      H1459   1.082       .  S
C1455      C1456   1.404       .  A
C1455      C2016   1.501       .  S
C1456      C1457   1.374       .  A
C1456      H1460   1.083       .  S
C1457      C1458   1.371       .  A
C1458      H1461   1.082       .  S
C1462      C1463   1.412       .  A
C1462      C1467   1.407       .  A
C1462      C2689   1.490       .  S
C1463      C1464   1.410       .  A
C1463      H1468   1.083       .  S
C1464      C1465   1.403       .  A
C1464      C2049   1.473       .  S
C1465      C1466   1.391       .  A
C1465      H1469   1.085       .  S
C1466      C1467   1.394       .  A
C1467      H1470   1.085       .  S
C1471      C1472   1.414       .  A
C1471      C1476   1.408       .  A
C1471      C2699   1.489       .  S
C1472      C1473   1.411       .  A
C1472      H1477   1.083       .  S
C1473      C1474   1.407       .  A
C1473      C2106   1.481       .  S
C1474      C1475   1.389       .  A
C1474      H1478   1.085       .  S
C1475      C1476   1.393       .  A
C1476      H1479   1.085       .  S
C1480      C1481   1.407       .  A
C1480      C1485   1.417       .  A
C1480      C2059   1.501       .  S
C1481      C1482   1.390       .  A
C1481      H1486   1.082       .  S
C1482      C1483   1.390       .  A
C1483      C1484   1.402       .  A
C1483      H1487   1.084       .  S
C1484      C1485   1.412       .  A
C1484      C2009   1.474       .  S
C1485      H1488   1.082       .  S
C1489      C1490   1.425       .  A
C1489      C1494   1.429       .  A
C1489      C3089   1.506       .  S
C1490      C1491   1.429       .  A
C1490      C3049   1.508       .  S
C1491      C1492   1.438       .  A
C1491      C1986   1.522   1_545  S
C1492      C1493   1.437       .  A
C1492      C1996   1.505   1_545  S
C1493      C1494   1.437       .  A
C1493      C2029   1.532       .  S
C1494      C2006   1.503       .  S
O1495     Mg1497   2.130       .  S
O1495     Mg1503   2.127       .  S
O1495      C1530   1.236       .  S
C1496      O1509   1.231       .  S
C1496      O1533   1.265       .  A
C1496      H1535   1.084       .  S
Mg1497     O1526   2.134       .  S
Mg1497     O1541   2.274       .  S
Mg1497     O1537   2.240       .  S
Mg1497     O1508   2.315       .  S
O1498     Mg1540   2.149       .  S
O1498     Mg1523   2.122       .  S
O1498      C1519   1.234       .  S
O1499      C1530   1.271       .  A
O1499     Mg1523   2.311       .  S
C1500      C1554   1.456       .  S
C1500      O1502   1.266       .  A
C1500      O1514   1.258       .  A
O1501      C1529   1.273       .  A
O1501     Mg1503   2.321       .  S
O1502     Mg1534   2.243       .  S
Mg1503     O1509   2.115       .  S
Mg1503     O1517   2.201       .  S
Mg1503     O1505   2.263       .  S
C1504      C1565   1.467       .  S
C1504      O1542   1.261       .  A
C1504      O1510   1.273       .  A
O1505      C1512   1.264       .  A
H1506      C1519   1.081       .  S
C1507      O1521   1.234       .  S
C1507      O1522   1.270       .  A
C1507      H1532   1.082       .  S
O1508      C1531   1.270       .  A
O1509     Mg1523   2.136       .  S
O1510     Mg1540   2.294       .  S
C1511      C1592   1.454       .  S
C1511      O1524   1.273       .  A
C1511      O1516   1.262       .  A
C1512      C1572   1.453       .  S
C1512      O1539   1.259       .  A
Mg1513     O1520   2.156       .  S
Mg1513     O1521   2.133       .  S
Mg1513     O1514   2.245       .  S
Mg1513     O1515   2.299       .  S
Mg1513     O1542   2.199       .  S
O1515      C1519   1.269       .  A
O1516     Mg1523   2.239       .  S
O1517      C1536   1.261       .  A
O1518      C1538   1.272       .  A
O1518     Mg1534   2.298       .  S
O1520     Mg1534   2.139       .  S
O1520      C1531   1.233       .  S
O1521     Mg1540   2.133       .  S
O1522     Mg1534   2.315       .  S
Mg1523     O1539   2.205       .  S
O1524     Mg1540   2.249       .  S
H1525      C1530   1.081       .  S
O1526     Mg1534   2.136       .  S
O1526      C1529   1.236       .  S
H1527      C1529   1.083       .  S
H1528      C1531   1.079       .  S
O1533     Mg1540   2.294       .  S
C1536      C1547   1.465       .  S
C1536      O1541   1.269       .  A
O1537      C1538   1.267       .  A
C1538      C1581   1.469       .  S
C1543      C1544   1.434       .  A
C1543      C1548   1.404       .  A
C1543      C1976   1.511       .  S
C1544      C1545   1.434       .  A
C1544      H1549   1.081       .  S
C1545      C1546   1.401       .  A
C1545      C2589   1.514       .  S
C1546      C1547   1.383       .  A
C1546      H1550   1.084       .  S
C1547      C1548   1.391       .  A
C1548      H1551   1.085       .  S
C1552      C1553   1.403       .  A
C1552      C1557   1.426       .  A
C1552      C2579   1.480       .  S
C1553      C1554   1.371       .  A
C1553      H1558   1.086       .  S
C1554      C1555   1.378       .  A
C1555      C1556   1.408       .  A
C1555      H1559   1.082       .  S
C1556      C1557   1.426       .  A
C1556      C1966   1.510       .  S
C1557      H1560   1.082       .  S
C1561      C1562   1.422       .  A
C1561      C1566   1.409       .  A
C1561      C2566   1.506       .  S
C1562      C1563   1.419       .  A
C1562      H1567   1.082       .  S
C1563      C1564   1.402       .  A
C1563      C1999   1.483       .  S
C1564      C1565   1.380       .  A
C1564      H1568   1.086       .  S
C1565      C1566   1.401       .  A
C1566      H1569   1.084       .  S
C1570      C1571   1.400       .  A
C1570      C1575   1.419       .  A
C1570      C1956   1.479       .  S
C1571      C1572   1.378       .  A
C1571      H1576   1.086       .  S
C1572      C1573   1.390       .  A
C1573      C1574   1.404       .  A
C1573      H1577   1.085       .  S
C1574      C1575   1.421       .  A
C1574      C2509   1.492       .  S
C1575      H1578   1.083       .  S
C1579      C1580   1.403       .  A
C1579      C1584   1.413       .  A
C1579      C2599   1.479       .  S
C1580      C1581   1.395       .  A
C1580      H1585   1.085       .  S
C1581      C1582   1.390       .  A
C1582      C1583   1.406       .  A
C1582      H1586   1.085       .  S
C1583      C1584   1.411       .  A
C1583      C1946   1.481       .  S
C1584      H1587   1.083       .  S
C1588      C1589   1.432       .  A
C1588      C1593   1.405       .  A
C1588      C2519   1.494       .  S
C1589      C1590   1.428       .  A
C1589      H1594   1.082       .  S
C1590      C1591   1.400       .  A
C1590      C1989   1.503       .  S
C1591      C1592   1.373       .  A
C1591      H1595   1.086       .  S
C1592      C1593   1.383       .  A
C1593      H1596   1.085       .  S
C1597      C1598   1.434       .  A
C1597      C1602   1.438       .  A
C1597      C1969   1.519       .  S
C1598      C1599   1.431       .  A
C1598      C2039   1.506       .  S
C1599      C1600   1.424       .  A
C1599      C2019   1.492       .  S
C1600      C1601   1.420       .  A
C1600      C1926   1.513       .  S
C1601      C1602   1.431       .  A
C1601      C1936   1.498       .  S
C1602      C1949   1.513       .  S
O1603     Mg1605   2.161       .  S
O1603     Mg1611   2.158       .  S
O1603      C1638   1.237       .  S
C1604      O1617   1.233       .  S
C1604      O1641   1.266       .  A
C1604      H1643   1.082       .  S
Mg1605     O1634   2.186       .  S
Mg1605     O1649   2.272       .  S
Mg1605     O1645   2.264       .  S
Mg1605     O1616   2.276   1_554  S
O1606     Mg1648   2.172   1_556  S
O1606     Mg1631   2.108   1_556  S
O1606      C1627   1.236       .  S
O1607      C1638   1.275       .  A
O1607     Mg1631   2.328       .  S
C1608      C1682   1.477       .  S
C1608      O1610   1.280       .  A
C1608      O1622   1.269       .  A
O1609      C1637   1.271       .  A
O1609     Mg1611   2.305       .  S
O1610     Mg1642   2.286       .  S
Mg1611     O1617   2.115       .  S
Mg1611     O1625   2.180       .  S
Mg1611     O1613   2.276       .  S
C1612      C1664   1.471       .  S
C1612      O1650   1.263       .  A
C1612      O1618   1.273       .  A
O1613      C1620   1.264       .  A
H1614      C1627   1.082       .  S
C1615      O1629   1.233   1_554  S
C1615      O1630   1.265       .  A
C1615      H1640   1.082       .  S
O1616      C1639   1.261       .  A
O1617     Mg1631   2.126       .  S
O1618     Mg1648   2.312   1_556  S
C1619      C1700   1.471       .  S
C1619      O1632   1.272       .  A
C1619      O1624   1.277       .  A
C1620      C1689   1.468       .  S
C1620      O1647   1.269       .  A
Mg1621     O1628   2.104       .  S
Mg1621     O1629   2.138       .  S
Mg1621     O1622   2.268       .  S
Mg1621     O1623   2.266       .  S
Mg1621     O1650   2.161       .  S
O1623      C1627   1.267       .  A
O1624     Mg1631   2.323       .  S
O1625      C1644   1.258       .  A
O1626      C1646   1.277       .  A
O1626     Mg1642   2.309       .  S
O1628     Mg1642   2.142       .  S
O1628      C1639   1.229       .  S
O1629     Mg1648   2.122   1_556  S
O1630     Mg1642   2.278   1_554  S
Mg1631     O1647   2.228       .  S
O1632     Mg1648   2.215       .  S
H1633      C1638   1.082       .  S
O1634     Mg1642   2.159   1_554  S
O1634      C1637   1.236       .  S
H1635      C1637   1.082       .  S
H1636      C1639   1.082       .  S
O1641     Mg1648   2.284       .  S
C1644      C1671   1.454       .  S
C1644      O1649   1.272       .  A
O1645      C1646   1.276   1_554  A
C1646      C1655   1.483       .  S
C1651      C1652   1.411       .  A
C1651      C1656   1.410       .  A
C1651      C1916   1.484       .  S
C1652      C1653   1.409   1_556  A
C1652      H1657   1.083       .  S
C1653      C1654   1.406       .  A
C1653      C2666   1.483       .  S
C1654      C1655   1.394   1_554  A
C1654      H1658   1.085       .  S
C1655      C1656   1.402       .  A
C1656      H1659   1.084       .  S
C1660      C1661   1.421       .  A
C1660      C1665   1.410       .  A
C1660      C3146   1.477       .  S
C1661      C1662   1.416       .  A
C1661      H1666   1.082       .  S
C1662      C1663   1.396       .  A
C1662      C1939   1.501       .  S
C1663      C1664   1.390       .  A
C1663      H1667   1.083       .  S
C1664      C1665   1.388       .  A
C1665      H1668   1.085       .  S
C1669      C1670   1.407       .  A
C1669      C1674   1.426       .  A
C1669      C2676   1.505       .  S
C1670      C1671   1.378       .  A
C1670      H1675   1.083       .  S
C1671      C1672   1.377       .  A
C1672      C1673   1.397       .  A
C1672      H1676   1.087       .  S
C1673      C1674   1.426       .  A
C1673      C1906   1.479       .  S
C1674      H1677   1.082       .  S
C1678      C1679   1.415       .  A
C1678      C1683   1.406       .  A
C1678      C1899   1.494       .  S
C1679      C1680   1.415       .  A
C1679      H1684   1.082       .  S
C1680      C1681   1.410       .  A
C1680      C1929   1.486       .  S
C1681      C1682   1.402       .  A
C1681      H1685   1.085       .  S
C1682      C1683   1.382       .  A
C1683      H1686   1.084       .  S
C1687      C1688   1.403       .  A
C1687      C1692   1.424       .  A
C1687      C1886   1.501       .  S
C1688      C1689   1.384       .  A
C1688      H1693   1.085       .  S
C1689      C1690   1.394       .  A
C1690      C1691   1.407       .  A
C1690      H1694   1.085       .  S
C1691      C1692   1.428       .  A
C1691      C1879   1.499       .  S
C1692      H1695   1.083       .  S
C1696      C1697   1.423       .  A
C1696      C1701   1.410       .  A
C1696      C3159   1.514       .  S
C1697      C1698   1.415       .  A
C1697      H1702   1.079       .  S
C1698      C1699   1.401       .  A
C1698      C1869   1.472       .  S
C1699      C1700   1.385       .  A
C1699      H1703   1.084       .  S
C1700      C1701   1.391       .  A
C1701      H1704   1.079       .  S
C1705      C1706   1.429       .  A
C1705      C1710   1.435       .  A
C1705      C3069   1.504       .  S
C1706      C1707   1.431       .  A
C1706      C3026   1.519       .  S
C1707      C1708   1.425       .  A
C1707      C1959   1.497   1_554  S
C1708      C1709   1.426       .  A
C1708      C1979   1.513   1_554  S
C1709      C1710   1.437       .  A
C1709      C1866   1.497       .  S
C1710      C1889   1.525       .  S
C1711      C1712   1.423   1_554  A
C1711      C1716   1.424       .  A
C1711      C1846   1.499       .  S
C1712      C1713   1.420       .  A
C1712      C3229   1.500       .  S
C1713      C1714   1.428   1_655  A
C1713      C3249   1.504       .  S
C1714      C1715   1.433       .  A
C1714      C1896   1.504       .  S
C1715      C1716   1.425   1_456  A
C1715      C1919   1.510       .  S
C1716      C1856   1.497       .  S
O1717     Mg1719   2.133       .  S
O1717     Mg1725   2.144       .  S
O1717      C1752   1.234       .  S
C1718      O1731   1.238   1_455  S
C1718      O1755   1.274       .  A
C1718      H1757   1.082       .  S
Mg1719     O1748   2.134   1_655  S
Mg1719     O1763   2.272       .  S
Mg1719     O1759   2.205       .  S
Mg1719     O1730   2.311       .  S
O1720     Mg1762   2.113       .  S
O1720     Mg1745   2.107   1_455  S
O1720      C1741   1.236   1_455  S
O1721      C1752   1.269       .  A
O1721     Mg1745   2.309       .  S
C1722      C1794   1.458       .  S
C1722      O1724   1.273       .  A
C1722      O1736   1.262       .  A
O1723      C1751   1.271       .  A
O1723     Mg1725   2.315   1_455  S
O1724     Mg1756   2.269       .  S
Mg1725     O1731   2.104       .  S
Mg1725     O1739   2.225       .  S
Mg1725     O1727   2.241       .  S
C1726      C1812   1.450       .  S
C1726      O1764   1.259       .  A
C1726      O1732   1.259       .  A
O1727      C1734   1.266       .  A
H1728      C1741   1.080       .  S
C1729      O1743   1.232       .  S
C1729      O1744   1.266       .  A
C1729      H1754   1.084       .  S
O1730      C1753   1.272       .  A
O1731     Mg1745   2.135       .  S
O1732     Mg1762   2.226       .  S
C1733      C1769   1.465       .  S
C1733      O1746   1.264       .  A
C1733      O1738   1.263       .  A
C1734      C1787   1.456       .  S
C1734      O1761   1.265       .  A
Mg1735     O1742   2.126       .  S
Mg1735     O1743   2.152       .  S
Mg1735     O1736   2.232       .  S
Mg1735     O1737   2.313   1_455  S
Mg1735     O1764   2.234       .  S
O1737      C1741   1.271       .  A
O1738     Mg1745   2.246   1_455  S
O1739      C1758   1.260       .  A
O1740      C1760   1.271       .  A
O1740     Mg1756   2.275   1_655  S
O1742     Mg1756   2.146       .  S
O1742      C1753   1.236   1_455  S
O1743     Mg1762   2.129       .  S
O1744     Mg1756   2.300       .  S
Mg1745     O1761   2.238       .  S
O1746     Mg1762   2.245       .  S
H1747      C1752   1.082       .  S
O1748     Mg1756   2.146       .  S
O1748      C1751   1.235       .  S
H1749      C1751   1.082       .  S
H1750      C1753   1.080       .  S
O1755     Mg1762   2.320       .  S
C1758      C1805   1.454       .  S
C1758      O1763   1.264       .  A
O1759      C1760   1.263       .  A
C1760      C1778   1.468       .  S
C1765      C1766   1.436       .  A
C1765      C1770   1.401       .  A
C1765      C3189   1.525   1_455  S
C1766      C1767   1.434       .  A
C1766      H1771   1.080       .  S
C1767      C1768   1.403       .  A
C1767      C2419   1.503       .  S
C1768      C1769   1.386       .  A
C1768      H1772   1.085       .  S
C1769      C1770   1.388       .  A
C1770      H1773   1.082   1_455  S
C1774      C1775   1.421       .  A
C1774      C1779   1.406       .  A
C1774      C1859   1.497       .  S
C1775      C1776   1.415   1_655  A
C1775      H1780   1.082       .  S
C1776      C1777   1.403       .  A
C1776      C3659   1.484       .  S
C1777      C1778   1.383   1_455  A
C1777      H1781   1.086       .  S
C1778      C1779   1.396       .  A
C1779      H1782   1.084       .  S
C1783      C1784   1.426       .  A
C1783      C1788   1.401       .  A
C1783      C3196   1.486       .  S
C1784      C1785   1.427       .  A
C1784      H1789   1.082       .  S
C1785      C1786   1.401       .  A
C1785      C2326   1.509       .  S
C1786      C1787   1.386       .  A
C1786      H1790   1.084       .  S
C1787      C1788   1.384       .  A
C1788      H1791   1.086       .  S
C1792      C1793   1.409       .  A
C1792      C1797   1.424       .  A
C1792      C3649   1.501       .  S
C1793      C1794   1.376       .  A
C1793      H1798   1.085       .  S
C1794      C1795   1.379       .  A
C1795      C1796   1.401       .  A
C1795      H1799   1.086       .  S
C1796      C1797   1.427       .  A
C1796      C1836   1.487       .  S
C1797      H1800   1.083       .  S
C1801      C1802   1.416       .  A
C1801      C1806   1.401       .  A
C1801      C1849   1.480       .  S
C1802      C1803   1.417       .  A
C1802      H1807   1.083       .  S
C1803      C1804   1.402       .  A
C1803      C2339   1.483       .  S
C1804      C1805   1.392       .  A
C1804      H1808   1.085       .  S
C1805      C1806   1.382       .  A
C1806      H1809   1.086       .  S
C1810      C1811   1.394       .  A
C1810      C1815   1.422       .  A
C1810      C2409   1.485       .  S
C1811      C1812   1.376       .  A
C1811      H1816   1.087       .  S
C1812      C1813   1.392       .  A
C1813      C1814   1.405       .  A
C1813      H1817   1.085       .  S
C1814      C1815   1.425       .  A
C1814      C1826   1.491       .  S
C1815      H1818   1.082       .  S
C1819      C1820   1.423       .  A
C1819      C1824   1.423       .  A
C1819      C2866   1.491       .  S
C1820      C1821   1.420       .  A
C1820      C2849   1.493       .  S
C1821      C1822   1.421       .  A
C1821      C1829   1.503       .  S
C1822      C1823   1.425       .  A
C1822      C1839   1.492       .  S
C1823      C1824   1.422       .  A
C1823      C1909   1.496       .  S
C1824      C1876   1.509       .  S
C1825      C1826   1.408       .  A
C1825      C1830   1.396       .  A
C1825      F1832   1.359       .  S
C1826      C1827   1.408       .  A
C1827      C1828   1.413       .  A
C1827      F1834   1.357       .  S
C1828      C1829   1.409       .  A
C1828      F1833   1.357       .  S
C1829      C1830   1.405       .  A
C1830      F1831   1.355       .  S
C1835      C1836   1.406       .  A
C1835      C1840   1.409       .  A
C1835      F1842   1.357       .  S
C1836      C1837   1.411       .  A
C1837      C1838   1.390       .  A
C1837      F1844   1.359       .  S
C1838      C1839   1.401       .  A
C1838      F1843   1.356       .  S
C1839      C1840   1.409       .  A
C1840      F1841   1.357       .  S
C1845      C1846   1.410       .  A
C1845      C1850   1.410       .  A
C1845      F1852   1.357       .  S
C1846      C1847   1.404       .  A
C1847      C1848   1.385       .  A
C1847      F1854   1.355       .  S
C1848      C1849   1.405       .  A
C1848      F1853   1.360       .  S
C1849      C1850   1.407       .  A
C1850      F1851   1.357       .  S
C1855      C1856   1.409       .  A
C1855      C1860   1.410       .  A
C1855      F1862   1.357       .  S
C1856      C1857   1.402       .  A
C1857      C1858   1.389       .  A
C1857      F1864   1.358       .  S
C1858      C1859   1.414       .  A
C1858      F1863   1.359   1_655  S
C1859      C1860   1.410       .  A
C1860      F1861   1.356       .  S
C1865      C1866   1.412       .  A
C1865      C1870   1.392   1_554  A
C1865      F1872   1.355   1_554  S
C1866      C1867   1.405       .  A
C1867      C1868   1.404       .  A
C1867      F1874   1.357       .  S
C1868      C1869   1.406       .  A
C1868      F1873   1.357       .  S
C1869      C1870   1.401   1_554  A
C1870      F1871   1.359       .  S
C1875      C1876   1.411       .  A
C1875      C1880   1.411       .  A
C1875      F1882   1.357       .  S
C1876      C1877   1.406       .  A
C1877      C1878   1.401       .  A
C1877      F1884   1.355       .  S
C1878      C1879   1.412       .  A
C1878      F1883   1.359       .  S
C1879      C1880   1.407       .  A
C1880      F1881   1.357       .  S
C1885      C1886   1.404       .  A
C1885      C1890   1.415       .  A
C1885      F1892   1.356       .  S
C1886      C1887   1.410       .  A
C1887      C1888   1.395       .  A
C1887      F1894   1.357       .  S
C1888      C1889   1.409       .  A
C1888      F1893   1.351       .  S
C1889      C1890   1.420       .  A
C1890      F1891   1.357       .  S
C1895      C1896   1.417       .  A
C1895      C1900   1.410       .  A
C1895      F1902   1.357       .  S
C1896      C1897   1.403       .  A
C1897      C1898   1.380       .  A
C1897      F1904   1.352       .  S
C1898      C1899   1.409       .  A
C1898      F1903   1.360       .  S
C1899      C1900   1.407       .  A
C1900      F1901   1.356       .  S
C1905      C1906   1.408       .  A
C1905      C1910   1.409       .  A
C1905      F1912   1.357       .  S
C1906      C1907   1.407       .  A
C1907      C1908   1.392       .  A
C1907      F1914   1.359       .  S
C1908      C1909   1.405       .  A
C1908      F1913   1.356       .  S
C1909      C1910   1.406       .  A
C1910      F1911   1.357       .  S
C1915      C1916   1.401   1_554  A
C1915      C1920   1.393       .  A
C1915      F1922   1.359       .  S
C1916      C1917   1.407       .  A
C1917      C1918   1.410       .  A
C1917      F1924   1.357       .  S
C1918      C1919   1.410       .  A
C1918      F1923   1.357       .  S
C1919      C1920   1.413   1_556  A
C1920      F1921   1.354       .  S
C1925      C1926   1.413       .  A
C1925      C1930   1.394       .  A
C1925      F1932   1.351       .  S
C1926      C1927   1.409       .  A
C1927      C1928   1.411       .  A
C1927      F1934   1.357       .  S
C1928      C1929   1.407       .  A
C1928      F1933   1.357       .  S
C1929      C1930   1.401       .  A
C1930      F1931   1.359       .  S
C1935      C1936   1.411       .  A
C1935      C1940   1.416       .  A
C1935      F1942   1.356       .  S
C1936      C1937   1.396       .  A
C1937      C1938   1.379       .  A
C1937      F1944   1.355       .  S
C1938      C1939   1.412       .  A
C1938      F1943   1.361       .  S
C1939      C1940   1.413       .  A
C1940      F1941   1.356       .  S
C1945      C1946   1.409       .  A
C1945      C1950   1.415       .  A
C1945      F1952   1.357       .  S
C1946      C1947   1.398       .  A
C1947      C1948   1.380       .  A
C1947      F1954   1.361       .  S
C1948      C1949   1.410       .  A
C1948      F1953   1.351       .  S
C1949      C1950   1.412       .  A
C1950      F1951   1.357       .  S
C1955      C1956   1.407       .  A
C1955      C1960   1.410       .  A
C1955      F1962   1.357       .  S
C1956      C1957   1.407       .  A
C1957      C1958   1.384       .  A
C1957      F1964   1.360       .  S
C1958      C1959   1.402       .  A
C1958      F1963   1.356       .  S
C1959      C1960   1.411       .  A
C1960      F1961   1.357       .  S
C1965      C1966   1.413       .  A
C1965      C1970   1.421       .  A
C1965      F1972   1.356       .  S
C1966      C1967   1.410       .  A
C1967      C1968   1.379       .  A
C1967      F1974   1.360       .  S
C1968      C1969   1.400       .  A
C1968      F1973   1.348       .  S
C1969      C1970   1.421       .  A
C1970      F1971   1.356       .  S
C1975      C1976   1.418       .  A
C1975      C1980   1.394       .  A
C1975      F1982   1.360       .  S
C1976      C1977   1.410       .  A
C1977      C1978   1.419       .  A
C1977      F1984   1.356       .  S
C1978      C1979   1.415       .  A
C1978      F1983   1.356   1_556  S
C1979      C1980   1.401       .  A
C1980      F1981   1.358       .  S
C1985      C1986   1.422       .  A
C1985      C1990   1.415       .  A
C1985      F1992   1.356   1_565  S
C1986      C1987   1.407       .  A
C1987      C1988   1.390       .  A
C1987      F1994   1.354       .  S
C1988      C1989   1.414       .  A
C1988      F1993   1.360       .  S
C1989      C1990   1.404       .  A
C1990      F1991   1.356       .  S
C1995      C1996   1.413       .  A
C1995      C2000   1.412       .  A
C1995      F2002   1.357       .  S
C1996      C1997   1.410       .  A
C1997      C1998   1.388       .  A
C1997      F2004   1.357       .  S
C1998      C1999   1.405       .  A
C1998      F2003   1.359       .  S
C1999      C2000   1.408       .  A
C2000      F2001   1.357       .  S
C2005      C2006   1.413       .  A
C2005      C2010   1.393       .  A
C2005      F2012   1.355       .  S
C2006      C2007   1.407       .  A
C2007      C2008   1.404       .  A
C2007      F2014   1.357       .  S
C2008      C2009   1.405       .  A
C2008      F2013   1.357       .  S
C2009      C2010   1.400       .  A
C2010      F2011   1.359       .  S
C2015      C2016   1.410       .  A
C2015      C2020   1.414       .  A
C2015      F2022   1.357       .  S
C2016      C2017   1.415       .  A
C2017      C2018   1.389       .  A
C2017      F2024   1.360       .  S
C2018      C2019   1.396       .  A
C2018      F2023   1.359       .  S
C2019      C2020   1.411       .  A
C2020      F2021   1.356       .  S
C2025      C2026   1.406       .  A
C2025      C2030   1.418       .  A
C2025      F2032   1.356       .  S
C2026      C2027   1.411       .  A
C2027      C2028   1.393       .  A
C2027      F2034   1.359       .  S
C2028      C2029   1.411       .  A
C2028      F2033   1.352       .  S
C2029      C2030   1.422       .  A
C2030      F2031   1.357       .  S
C2035      C2036   1.407       .  A
C2035      C2040   1.412       .  A
C2035      F2042   1.357       .  S
C2036      C2037   1.410       .  A
C2037      C2038   1.396       .  A
C2037      F2044   1.359       .  S
C2038      C2039   1.406       .  A
C2038      F2043   1.358       .  S
C2039      C2040   1.411       .  A
C2040      F2041   1.357       .  S
C2045      C2046   1.410       .  A
C2045      C2050   1.393       .  A
C2045      F2052   1.356       .  S
C2046      C2047   1.409       .  A
C2047      C2048   1.404       .  A
C2047      F2054   1.357       .  S
C2048      C2049   1.403       .  A
C2048      F2053   1.357       .  S
C2049      C2050   1.402       .  A
C2050      F2051   1.359       .  S
C2055      C2056   1.405       .  A
C2055      C2060   1.390       .  A
C2055      F2062   1.354       .  S
C2056      C2057   1.412       .  A
C2057      C2058   1.406       .  A
C2057      F2064   1.357       .  S
C2058      C2059   1.409       .  A
C2058      F2063   1.356       .  S
C2059      C2060   1.414       .  A
C2060      F2061   1.359       .  S
C2065      C2066   1.406       .  A
C2065      C2070   1.386       .  A
C2065      F2072   1.360       .  S
C2066      C2067   1.407       .  A
C2067      C2068   1.408       .  A
C2067      F2074   1.357       .  S
C2068      C2069   1.407       .  A
C2068      F2073   1.357       .  S
C2069      C2070   1.403       .  A
C2070      F2071   1.355       .  S
C2075      C2076   1.415       .  A
C2075      C2080   1.404       .  A
C2075      F2082   1.359       .  S
C2076      C2077   1.409       .  A
C2077      C2078   1.415       .  A
C2077      F2084   1.357       .  S
C2078      C2079   1.413       .  A
C2078      F2083   1.357       .  S
C2079      C2080   1.407       .  A
C2080      F2081   1.357       .  S
C2085      C2086   1.403       .  A
C2085      C2090   1.395       .  A
C2085      F2092   1.359       .  S
C2086      C2087   1.407       .  A
C2087      C2088   1.410       .  A
C2087      F2094   1.357       .  S
C2088      C2089   1.410       .  A
C2088      F2093   1.357       .  S
C2089      C2090   1.411       .  A
C2090      F2091   1.355       .  S
C2095      C2096   1.416       .  A
C2095      C2100   1.381       .  A
C2095      F2102   1.360   1_655  S
C2096      C2097   1.411       .  A
C2097      C2098   1.414       .  A
C2097      F2104   1.356       .  S
C2098      C2099   1.412       .  A
C2098      F2103   1.357       .  S
C2099      C2100   1.400       .  A
C2100      F2101   1.355       .  S
C2105      C2106   1.411   1_565  A
C2105      C2110   1.414       .  A
C2105      F2112   1.357       .  S
C2106      C2107   1.401       .  A
C2107      C2108   1.379       .  A
C2107      F2114   1.360       .  S
C2108      C2109   1.406   1_545  A
C2108      F2113   1.356       .  S
C2109      C2110   1.410       .  A
C2110      F2111   1.357       .  S
C2115      C2116   1.424       .  A
C2115      C2120   1.423       .  A
C2115      F2122   1.356   1_455  S
C2116      C2117   1.400       .  A
C2117      C2118   1.379       .  A
C2117      F2124   1.350       .  S
C2118      C2119   1.411       .  A
C2118      F2123   1.361       .  S
C2119      C2120   1.412       .  A
C2120      F2121   1.356       .  S
C2125      C2126   1.409       .  A
C2125      C2130   1.414       .  A
C2125      F2132   1.356       .  S
C2126      C2127   1.406       .  A
C2127      C2128   1.380       .  A
C2127      F2134   1.354       .  S
C2128      C2129   1.400       .  A
C2128      F2133   1.360       .  S
C2129      C2130   1.410       .  A
C2130      F2131   1.357       .  S
C2135      C2136   1.418       .  A
C2135      C2140   1.384       .  A
C2135      F2142   1.359       .  S
C2136      C2137   1.419       .  A
C2137      C2138   1.424       .  A
C2137      F2144   1.355       .  S
C2138      C2139   1.419       .  A
C2138      F2143   1.356       .  S
C2139      C2140   1.398       .  A
C2140      F2141   1.350       .  S
C2145      C2146   1.407       .  A
C2145      C2150   1.411       .  A
C2145      F2152   1.357       .  S
C2146      C2147   1.410       .  A
C2147      C2148   1.406       .  A
C2147      F2154   1.358       .  S
C2148      C2149   1.409       .  A
C2148      F2153   1.357       .  S
C2149      C2150   1.411       .  A
C2150      F2151   1.357       .  S
C2155      C2156   1.413       .  A
C2155      C2160   1.413       .  A
C2155      F2162   1.356       .  S
C2156      C2157   1.418       .  A
C2157      C2158   1.387       .  A
C2157      F2164   1.360       .  S
C2158      C2159   1.395       .  A
C2158      F2163   1.359       .  S
C2159      C2160   1.409       .  A
C2160      F2161   1.356       .  S
C2165      C2166   1.409   1_545  A
C2165      C2170   1.411       .  A
C2165      F2172   1.357       .  S
C2166      C2167   1.406       .  A
C2167      C2168   1.386       .  A
C2167      F2174   1.360       .  S
C2168      C2169   1.403   1_565  A
C2168      F2173   1.356       .  S
C2169      C2170   1.408       .  A
C2170      F2171   1.357       .  S
C2175      C2176   1.416       .  A
C2175      C2180   1.421       .  A
C2175      F2182   1.356       .  S
C2176      C2177   1.399       .  A
C2177      C2178   1.391       .  A
C2177      F2184   1.356       .  S
C2178      C2179   1.417       .  A
C2178      F2183   1.360       .  S
C2179      C2180   1.409       .  A
C2180      F2181   1.356       .  S
C2185      C2186   1.411       .  A
C2185      C2190   1.398       .  A
C2185      F2192   1.353       .  S
C2186      C2187   1.408       .  A
C2187      C2188   1.411       .  A
C2187      F2194   1.357       .  S
C2188      C2189   1.407       .  A
C2188      F2193   1.357       .  S
C2189      C2190   1.403       .  A
C2190      F2191   1.359       .  S
C2195      C2196   1.417       .  A
C2195      C2200   1.424       .  A
C2195      F2202   1.356       .  S
C2196      C2197   1.395       .  A
C2197      C2198   1.382       .  A
C2197      F2204   1.354       .  S
C2198      C2199   1.419       .  A
C2198      F2203   1.361       .  S
C2199      C2200   1.411       .  A
C2200      F2201   1.356       .  S
C2205      C2206   1.412       .  A
C2205      C2210   1.418       .  A
C2205      F2212   1.357       .  S
C2206      C2207   1.410       .  A
C2207      C2208   1.385       .  A
C2207      F2214   1.360       .  S
C2208      C2209   1.399       .  A
C2208      F2213   1.353       .  S
C2209      C2210   1.412       .  A
C2210      F2211   1.356       .  S
C2215      C2216   1.415       .  A
C2215      C2220   1.393       .  A
C2215      F2222   1.359       .  S
C2216      C2217   1.411       .  A
C2217      C2218   1.416       .  A
C2217      F2224   1.357       .  S
C2218      C2219   1.411       .  A
C2218      F2223   1.357       .  S
C2219      C2220   1.401       .  A
C2220      F2221   1.356       .  S
C2225      C2226   1.419       .  A
C2225      C2230   1.425       .  A
C2225      F2232   1.356       .  S
C2226      C2227   1.398       .  A
C2227      C2228   1.385       .  A
C2227      F2234   1.353       .  S
C2228      C2229   1.416       .  A
C2228      F2233   1.361       .  S
C2229      C2230   1.410       .  A
C2230      F2231   1.356       .  S
C2235      C2236   1.404       .  A
C2235      C2240   1.398       .  A
C2235      F2242   1.359       .  S
C2236      C2237   1.408       .  A
C2237      C2238   1.413       .  A
C2237      F2244   1.357       .  S
C2238      C2239   1.409       .  A
C2238      F2243   1.357       .  S
C2239      C2240   1.413       .  A
C2240      F2241   1.354       .  S
C2245      C2246   1.401       .  A
C2245      C2250   1.390       .  A
C2245      F2252   1.357       .  S
C2246      C2247   1.411       .  A
C2247      C2248   1.414       .  A
C2247      F2254   1.357       .  S
C2248      C2249   1.409       .  A
C2248      F2253   1.356       .  S
C2249      C2250   1.414       .  A
C2250      F2251   1.360       .  S
C2255      C2256   1.403   1_556  A
C2255      C2260   1.388       .  A
C2255      F2262   1.356       .  S
C2256      C2257   1.408       .  A
C2257      C2258   1.413       .  A
C2257      F2264   1.357       .  S
C2258      C2259   1.411   1_554  A
C2258      F2263   1.357       .  S
C2259      C2260   1.408       .  A
C2260      F2261   1.359       .  S
C2265      C2266   1.411       .  A
C2265      C2270   1.408       .  A
C2265      F2272   1.357   1_556  S
C2266      C2267   1.400       .  A
C2267      C2268   1.387       .  A
C2267      F2274   1.357       .  S
C2268      C2269   1.413       .  A
C2268      F2273   1.360       .  S
C2269      C2270   1.404       .  A
C2270      F2271   1.357       .  S
C2275      C2276   1.410       .  A
C2275      C2280   1.411       .  A
C2275      F2282   1.357       .  S
C2276      C2277   1.407       .  A
C2277      C2278   1.397       .  A
C2277      F2284   1.358       .  S
C2278      C2279   1.410       .  A
C2278      F2283   1.359       .  S
C2279      C2280   1.410       .  A
C2280      F2281   1.357       .  S
C2285      C2286   1.412       .  A
C2285      C2290   1.417       .  A
C2285      F2292   1.356       .  S
C2286      C2287   1.403   1_556  A
C2287      C2288   1.385       .  A
C2287      F2294   1.355       .  S
C2288      C2289   1.408   1_554  A
C2288      F2293   1.360       .  S
C2289      C2290   1.410       .  A
C2290      F2291   1.356       .  S
C2295      C2296   1.419       .  A
C2295      C2300   1.388       .  A
C2295      F2302   1.360       .  S
C2296      C2297   1.412       .  A
C2297      C2298   1.423       .  A
C2297      F2304   1.356       .  S
C2298      C2299   1.416       .  A
C2298      F2303   1.356   1_545  S
C2299      C2300   1.399       .  A
C2300      F2301   1.356       .  S
C2305      C2306   1.406       .  A
C2305      C2310   1.405       .  A
C2305      F2312   1.358       .  S
C2306      C2307   1.406       .  A
C2307      C2308   1.403       .  A
C2307      F2314   1.357       .  S
C2308      C2309   1.408       .  A
C2308      F2313   1.357       .  S
C2309      C2310   1.412       .  A
C2310      F2311   1.358       .  S
C2315      C2316   1.421       .  A
C2315      C2320   1.391   1_545  A
C2315      F2322   1.359       .  S
C2316      C2317   1.414   1_545  A
C2317      C2318   1.413       .  A
C2317      F2324   1.355       .  S
C2318      C2319   1.410       .  A
C2318      F2323   1.357       .  S
C2319      C2320   1.399       .  A
C2320      F2321   1.358       .  S
C2325      C2326   1.419       .  A
C2325      C2330   1.387       .  A
C2325      F2332   1.359       .  S
C2326      C2327   1.412       .  A
C2327      C2328   1.415       .  A
C2327      F2334   1.356       .  S
C2328      C2329   1.411       .  A
C2328      F2333   1.357       .  S
C2329      C2330   1.396       .  A
C2330      F2331   1.358       .  S
C2335      C2336   1.409       .  A
C2335      C2340   1.407       .  A
C2335      F2342   1.357       .  S
C2336      C2337   1.406       .  A
C2337      C2338   1.395       .  A
C2337      F2344   1.358       .  S
C2338      C2339   1.407       .  A
C2338      F2343   1.358       .  S
C2339      C2340   1.405       .  A
C2340      F2341   1.357       .  S
C2345      C2346   1.403       .  A
C2345      C2350   1.389       .  A
C2345      F2352   1.354       .  S
C2346      C2347   1.415       .  A
C2347      C2348   1.414       .  A
C2347      F2354   1.357       .  S
C2348      C2349   1.412       .  A
C2348      F2353   1.356       .  S
C2349      C2350   1.415       .  A
C2350      F2351   1.359       .  S
C2355      C2356   1.412       .  A
C2355      C2360   1.396       .  A
C2355      F2362   1.353       .  S
C2356      C2357   1.411       .  A
C2357      C2358   1.409       .  A
C2357      F2364   1.357       .  S
C2358      C2359   1.406       .  A
C2358      F2363   1.357       .  S
C2359      C2360   1.402       .  A
C2360      F2361   1.359       .  S
C2365      C2366   1.408       .  A
C2365      C2370   1.401       .  A
C2365      F2372   1.358       .  S
C2366      C2367   1.405       .  A
C2367      C2368   1.408       .  A
C2367      F2374   1.357       .  S
C2368      C2369   1.410       .  A
C2368      F2373   1.357       .  S
C2369      C2370   1.408       .  A
C2370      F2371   1.357       .  S
C2375      C2376   1.407       .  A
C2375      C2380   1.409       .  A
C2375      F2382   1.357       .  S
C2376      C2377   1.406       .  A
C2377      C2378   1.395       .  A
C2377      F2384   1.359       .  S
C2378      C2379   1.407       .  A
C2378      F2383   1.355       .  S
C2379      C2380   1.408       .  A
C2380      F2381   1.357       .  S
C2385      C2386   1.403       .  A
C2385      C2390   1.389       .  A
C2385      F2392   1.355       .  S
C2386      C2387   1.411       .  A
C2387      C2388   1.416       .  A
C2387      F2394   1.357       .  S
C2388      C2389   1.410       .  A
C2388      F2393   1.357       .  S
C2389      C2390   1.410       .  A
C2390      F2391   1.359       .  S
C2395      C2396   1.418       .  A
C2395      C2400   1.411       .  A
C2395      F2402   1.355       .  S
C2396      C2397   1.420       .  A
C2397      C2398   1.392       .  A
C2397      F2404   1.358       .  S
C2398      C2399   1.399       .  A
C2398      F2403   1.358       .  S
C2399      C2400   1.406       .  A
C2400      F2401   1.357       .  S
C2405      C2406   1.412       .  A
C2405      C2410   1.412       .  A
C2405      F2412   1.356       .  S
C2406      C2407   1.402       .  A
C2407      C2408   1.386       .  A
C2407      F2414   1.357       .  S
C2408      C2409   1.410       .  A
C2408      F2413   1.360       .  S
C2409      C2410   1.407       .  A
C2410      F2411   1.357       .  S
C2415      C2416   1.413       .  A
C2415      C2420   1.417       .  A
C2415      F2422   1.357       .  S
C2416      C2417   1.400       .  A
C2417      C2418   1.394       .  A
C2417      F2424   1.358       .  S
C2418      C2419   1.416       .  A
C2418      F2423   1.359   1_455  S
C2419      C2420   1.408       .  A
C2420      F2421   1.356       .  S
C2425      C2426   1.410       .  A
C2425      C2430   1.401       .  A
C2425      F2432   1.354       .  S
C2426      C2427   1.408       .  A
C2427      C2428   1.412       .  A
C2427      F2434   1.357   1_655  S
C2428      C2429   1.409       .  A
C2428      F2433   1.357       .  S
C2429      C2430   1.406       .  A
C2430      F2431   1.359       .  S
C2435      C2436   1.411       .  A
C2435      C2440   1.416       .  A
C2435      F2442   1.356       .  S
C2436      C2437   1.416       .  A
C2437      C2438   1.382       .  A
C2437      F2444   1.361       .  S
C2438      C2439   1.395       .  A
C2438      F2443   1.358       .  S
C2439      C2440   1.411       .  A
C2440      F2441   1.356       .  S
C2445      C2446   1.409       .  A
C2445      C2450   1.411       .  A
C2445      F2452   1.357   1_655  S
C2446      C2447   1.406       .  A
C2447      C2448   1.393       .  A
C2447      F2454   1.355       .  S
C2448      C2449   1.407       .  A
C2448      F2453   1.359       .  S
C2449      C2450   1.407       .  A
C2450      F2451   1.357       .  S
C2455      C2456   1.410       .  A
C2455      C2460   1.415       .  A
C2455      F2462   1.356       .  S
C2456      C2457   1.400       .  A
C2457      C2458   1.384       .  A
C2457      F2464   1.355       .  S
C2458      C2459   1.409       .  A
C2458      F2463   1.360       .  S
C2459      C2460   1.410       .  A
C2460      F2461   1.356       .  S
C2465      C2466   1.397       .  A
C2465      C2470   1.387   1_455  A
C2465      F2472   1.357       .  S
C2466      C2467   1.415       .  A
C2467      C2468   1.421       .  A
C2467      F2474   1.356       .  S
C2468      C2469   1.410       .  A
C2468      F2473   1.356       .  S
C2469      C2470   1.417   1_455  A
C2470      F2471   1.360       .  S
C2475      C2476   1.410       .  A
C2475      C2480   1.408       .  A
C2475      F2482   1.357       .  S
C2476      C2477   1.403       .  A
C2477      C2478   1.388       .  A
C2477      F2484   1.358       .  S
C2478      C2479   1.409       .  A
C2478      F2483   1.359       .  S
C2479      C2480   1.405       .  A
C2480      F2481   1.357       .  S
C2485      C2486   1.416       .  A
C2485      C2490   1.412       .  A
C2485      F2492   1.356       .  S
C2486      C2487   1.404       .  A
C2487      C2488   1.389       .  A
C2487      F2494   1.353       .  S
C2488      C2489   1.413       .  A
C2488      F2493   1.359       .  S
C2489      C2490   1.407       .  A
C2490      F2491   1.356       .  S
C2495      C2496   1.411       .  A
C2495      C2500   1.411       .  A
C2495      F2502   1.357       .  S
C2496      C2497   1.412       .  A
C2497      C2498   1.394       .  A
C2497      F2504   1.351       .  S
C2498      C2499   1.402       .  A
C2498      F2503   1.360       .  S
C2499      C2500   1.406       .  A
C2500      F2501   1.357       .  S
C2505      C2506   1.410       .  A
C2505      C2510   1.413       .  A
C2505      F2512   1.357       .  S
C2506      C2507   1.402       .  A
C2507      C2508   1.388       .  A
C2507      F2514   1.355       .  S
C2508      C2509   1.409       .  A
C2508      F2513   1.360       .  S
C2509      C2510   1.408       .  A
C2510      F2511   1.357       .  S
C2515      C2516   1.410       .  A
C2515      C2520   1.415       .  A
C2515      F2522   1.357       .  S
C2516      C2517   1.408       .  A
C2517      C2518   1.394       .  A
C2517      F2524   1.352       .  S
C2518      C2519   1.407       .  A
C2518      F2523   1.359       .  S
C2519      C2520   1.409       .  A
C2520      F2521   1.357       .  S
C2525      C2526   1.394       .  A
C2525      C2530   1.386       .  A
C2525      F2532   1.358       .  S
C2526      C2527   1.410       .  A
C2527      C2528   1.416       .  A
C2527      F2534   1.356       .  S
C2528      C2529   1.413       .  A
C2528      F2533   1.356       .  S
C2529      C2530   1.418       .  A
C2530      F2531   1.360       .  S
C2535      C2536   1.404       .  A
C2535      C2540   1.395       .  A
C2535      F2542   1.358       .  S
C2536      C2537   1.409       .  A
C2537      C2538   1.408       .  A
C2537      F2544   1.357       .  S
C2538      C2539   1.405       .  A
C2538      F2543   1.357       .  S
C2539      C2540   1.410       .  A
C2540      F2541   1.359       .  S
C2545      C2546   1.410       .  A
C2545      C2550   1.410       .  A
C2545      F2552   1.355       .  S
C2546      C2547   1.399       .  A
C2547      C2548   1.388       .  A
C2547      F2554   1.355       .  S
C2548      C2549   1.416       .  A
C2548      F2553   1.359       .  S
C2549      C2550   1.410       .  A
C2550      F2551   1.356       .  S
C2555      C2556   1.412       .  A
C2555      C2560   1.409       .  A
C2555      F2562   1.357       .  S
C2556      C2557   1.409       .  A
C2557      C2558   1.392       .  A
C2557      F2564   1.350       .  S
C2558      C2559   1.403       .  A
C2558      F2563   1.360       .  S
C2559      C2560   1.404       .  A
C2560      F2561   1.357       .  S
C2565      C2566   1.412       .  A
C2565      C2570   1.416       .  A
C2565      F2572   1.356       .  S
C2566      C2567   1.411       .  A
C2567      C2568   1.396       .  A
C2567      F2574   1.359       .  S
C2568      C2569   1.407       .  A
C2568      F2573   1.354       .  S
C2569      C2570   1.410       .  A
C2570      F2571   1.357       .  S
C2575      C2576   1.401       .  A
C2575      C2580   1.385       .  A
C2575      F2582   1.354       .  S
C2576      C2577   1.408       .  A
C2577      C2578   1.411       .  A
C2577      F2584   1.357       .  S
C2578      C2579   1.408       .  A
C2578      F2583   1.357       .  S
C2579      C2580   1.406       .  A
C2580      F2581   1.360       .  S
C2585      C2586   1.415       .  A
C2585      C2590   1.421       .  A
C2585      F2592   1.356       .  S
C2586      C2587   1.398       .  A
C2587      C2588   1.382       .  A
C2587      F2594   1.355       .  S
C2588      C2589   1.418       .  A
C2588      F2593   1.360       .  S
C2589      C2590   1.413       .  A
C2590      F2591   1.356       .  S
C2595      C2596   1.408       .  A
C2595      C2600   1.406       .  A
C2595      F2602   1.357       .  S
C2596      C2597   1.409       .  A
C2597      C2598   1.392       .  A
C2597      F2604   1.357       .  S
C2598      C2599   1.404       .  A
C2598      F2603   1.359       .  S
C2599      C2600   1.406       .  A
C2600      F2601   1.357       .  S
C2605      C2606   1.399       .  A
C2605      C2610   1.379       .  A
C2605      F2612   1.354       .  S
C2606      C2607   1.411       .  A
C2607      C2608   1.418       .  A
C2607      F2614   1.356       .  S
C2608      C2609   1.413       .  A
C2608      F2613   1.356       .  S
C2609      C2610   1.409       .  A
C2610      F2611   1.360       .  S
C2615      C2616   1.412       .  A
C2615      C2620   1.417       .  A
C2615      F2622   1.356       .  S
C2616      C2617   1.402       .  A
C2617      C2618   1.385       .  A
C2617      F2624   1.355       .  S
C2618      C2619   1.409       .  A
C2618      F2623   1.360       .  S
C2619      C2620   1.409       .  A
C2620      F2621   1.356       .  S
C2625      C2626   1.411       .  A
C2625      C2630   1.407       .  A
C2625      F2632   1.357       .  S
C2626      C2627   1.402       .  A
C2627      C2628   1.393       .  A
C2627      F2634   1.358       .  S
C2628      C2629   1.412       .  A
C2628      F2633   1.359       .  S
C2629      C2630   1.403       .  A
C2630      F2631   1.357       .  S
C2635      C2636   1.408       .  A
C2635      C2640   1.401       .  A
C2635      F2642   1.358       .  S
C2636      C2637   1.416       .  A
C2637      C2638   1.412       .  A
C2637      F2644   1.354       .  S
C2638      C2639   1.407       .  A
C2638      F2643   1.357       .  S
C2639      C2640   1.414       .  A
C2640      F2641   1.359       .  S
C2645      C2646   1.417       .  A
C2645      C2650   1.419       .  A
C2645      F2652   1.355       .  S
C2646      C2647   1.403       .  A
C2647      C2648   1.390       .  A
C2647      F2654   1.351       .  S
C2648      C2649   1.415       .  A
C2648      F2653   1.359       .  S
C2649      C2650   1.411       .  A
C2650      F2651   1.356       .  S
C2655      C2656   1.412       .  A
C2655      C2660   1.415       .  A
C2655      F2662   1.357       .  S
C2656      C2657   1.413       .  A
C2657      C2658   1.390       .  A
C2657      F2664   1.352       .  S
C2658      C2659   1.402       .  A
C2658      F2663   1.360       .  S
C2659      C2660   1.409       .  A
C2660      F2661   1.357       .  S
C2665      C2666   1.400   1_556  A
C2665      C2670   1.384       .  A
C2665      F2672   1.360       .  S
C2666      C2667   1.410       .  A
C2667      C2668   1.413       .  A
C2667      F2674   1.357       .  S
C2668      C2669   1.410       .  A
C2668      F2673   1.357       .  S
C2669      C2670   1.409   1_554  A
C2670      F2671   1.352       .  S
C2675      C2676   1.409       .  A
C2675      C2680   1.417       .  A
C2675      F2682   1.356       .  S
C2676      C2677   1.410       .  A
C2677      C2678   1.384       .  A
C2677      F2684   1.360       .  S
C2678      C2679   1.404       .  A
C2678      F2683   1.351       .  S
C2679      C2680   1.421       .  A
C2680      F2681   1.356   1_565  S
C2685      C2686   1.406       .  A
C2685      C2690   1.386       .  A
C2685      F2692   1.354       .  S
C2686      C2687   1.407       .  A
C2687      C2688   1.411       .  A
C2687      F2694   1.357       .  S
C2688      C2689   1.412       .  A
C2688      F2693   1.357       .  S
C2689      C2690   1.405       .  A
C2690      F2691   1.359       .  S
C2695      C2696   1.409       .  A
C2695      C2700   1.411       .  A
C2695      F2702   1.357       .  S
C2696      C2697   1.404       .  A
C2697      C2698   1.383       .  A
C2697      F2704   1.353       .  S
C2698      C2699   1.407       .  A
C2698      F2703   1.360       .  S
C2699      C2700   1.409       .  A
C2700      F2701   1.357       .  S
C2705      C2706   1.416       .  A
C2705      C2710   1.391       .  A
C2705      F2712   1.360       .  S
C2706      C2707   1.406       .  A
C2707      C2708   1.415       .  A
C2707      F2714   1.356       .  S
C2708      C2709   1.413       .  A
C2708      F2713   1.357       .  S
C2709      C2710   1.401       .  A
C2710      F2711   1.358       .  S
C2715      C2716   1.410       .  A
C2715      C2720   1.388       .  A
C2715      F2722   1.360       .  S
C2716      C2717   1.407       .  A
C2717      C2718   1.415       .  A
C2717      F2724   1.356       .  S
C2718      C2719   1.412       .  A
C2718      F2723   1.356       .  S
C2719      C2720   1.403       .  A
C2720      F2721   1.354       .  S
C2725      C2726   1.411       .  A
C2725      C2730   1.411       .  A
C2725      F2732   1.357       .  S
C2726      C2727   1.410       .  A
C2727      C2728   1.394       .  A
C2727      F2734   1.359       .  S
C2728      C2729   1.406       .  A
C2728      F2733   1.358       .  S
C2729      C2730   1.410       .  A
C2730      F2731   1.357       .  S
C2735      C2736   1.410       .  A
C2735      C2740   1.386       .  A
C2735      F2742   1.359       .  S
C2736      C2737   1.414       .  A
C2737      C2738   1.412       .  A
C2737      F2744   1.356       .  S
C2738      C2739   1.406       .  A
C2738      F2743   1.357       .  S
C2739      C2740   1.402       .  A
C2740      F2741   1.356       .  S
C2745      C2746   1.404       .  A
C2745      C2750   1.387       .  A
C2745      F2752   1.352       .  S
C2746      C2747   1.415       .  A
C2747      C2748   1.411       .  A
C2747      F2754   1.357       .  S
C2748      C2749   1.408       .  A
C2748      F2753   1.357       .  S
C2749      C2750   1.411       .  A
C2750      F2751   1.359       .  S
C2755      C2756   1.413       .  A
C2755      C2760   1.393       .  A
C2755      F2762   1.352       .  S
C2756      C2757   1.410       .  A
C2757      C2758   1.410       .  A
C2757      F2764   1.357       .  S
C2758      C2759   1.407       .  A
C2758      F2763   1.357       .  S
C2759      C2760   1.402       .  A
C2760      F2761   1.359       .  S
C2765      C2766   1.408       .  A
C2765      C2770   1.382       .  A
C2765      F2772   1.360       .  S
C2766      C2767   1.412       .  A
C2767      C2768   1.418       .  A
C2767      F2774   1.356       .  S
C2768      C2769   1.411       .  A
C2768      F2773   1.356       .  S
C2769      C2770   1.401       .  A
C2770      F2771   1.354       .  S
C2775      C2776   1.407       .  A
C2775      C2780   1.410       .  A
C2775      F2782   1.357       .  S
C2776      C2777   1.413       .  A
C2777      C2778   1.392       .  A
C2777      F2784   1.359       .  S
C2778      C2779   1.400       .  A
C2778      F2783   1.358       .  S
C2779      C2780   1.409       .  A
C2780      F2781   1.357       .  S
C2785      C2786   1.411       .  A
C2785      C2790   1.389       .  A
C2785      F2792   1.360       .  S
C2786      C2787   1.410       .  A
C2787      C2788   1.420       .  A
C2787      F2794   1.356       .  S
C2788      C2789   1.414       .  A
C2788      F2793   1.357       .  S
C2789      C2790   1.404       .  A
C2790      F2791   1.352       .  S
C2795      C2796   1.398       .  A
C2795      C2800   1.392       .  A
C2795      F2802   1.359       .  S
C2796      C2797   1.406       .  A
C2797      C2798   1.407       .  A
C2797      F2804   1.357       .  S
C2798      C2799   1.407       .  A
C2798      F2803   1.357       .  S
C2799      C2800   1.413       .  A
C2800      F2801   1.351       .  S
C2805      C2806   1.410       .  A
C2805      C2810   1.411       .  A
C2805      F2812   1.357       .  S
C2806      C2807   1.411       .  A
C2807      C2808   1.396       .  A
C2807      F2814   1.359       .  S
C2808      C2809   1.405       .  A
C2808      F2813   1.358       .  S
C2809      C2810   1.409       .  A
C2810      F2811   1.357       .  S
C2815      C2816   1.411       .  A
C2815      C2820   1.384       .  A
C2815      F2822   1.360       .  S
C2816      C2817   1.407       .  A
C2817      C2818   1.414       .  A
C2817      F2824   1.356       .  S
C2818      C2819   1.418       .  A
C2818      F2823   1.356       .  S
C2819      C2820   1.405       .  A
C2820      F2821   1.351       .  S
C2825      C2826   1.407       .  A
C2825      C2830   1.408       .  A
C2825      F2832   1.357       .  S
C2826      C2827   1.409       .  A
C2827      C2828   1.404       .  A
C2827      F2834   1.357       .  S
C2828      C2829   1.408       .  A
C2828      F2833   1.358       .  S
C2829      C2830   1.407       .  A
C2830      F2831   1.357       .  S
C2835      C2836   1.412       .  A
C2835      C2840   1.419       .  A
C2835      F2842   1.356       .  S
C2836      C2837   1.391       .  A
C2837      C2838   1.385       .  A
C2837      F2844   1.359       .  S
C2838      C2839   1.420       .  A
C2838      F2843   1.360       .  S
C2839      C2840   1.414       .  A
C2840      F2841   1.356       .  S
C2845      C2846   1.412       .  A
C2845      C2850   1.391       .  A
C2845      F2852   1.359       .  S
C2846      C2847   1.406       .  A
C2847      C2848   1.410       .  A
C2847      F2854   1.357       .  S
C2848      C2849   1.409       .  A
C2848      F2853   1.357       .  S
C2849      C2850   1.400       .  A
C2850      F2851   1.357       .  S
C2855      C2856   1.403       .  A
C2855      C2860   1.383       .  A
C2855      F2862   1.360       .  S
C2856      C2857   1.412       .  A
C2857      C2858   1.421       .  A
C2857      F2864   1.356       .  S
C2858      C2859   1.414       .  A
C2858      F2863   1.356       .  S
C2859      C2860   1.407       .  A
C2860      F2861   1.352       .  S
C2865      C2866   1.402       .  A
C2865      C2870   1.390       .  A
C2865      F2872   1.357       .  S
C2866      C2867   1.406       .  A
C2867      C2868   1.408       .  A
C2867      F2874   1.357       .  S
C2868      C2869   1.410       .  A
C2868      F2873   1.357       .  S
C2869      C2870   1.409       .  A
C2870      F2871   1.359       .  S
C2875      C2876   1.415       .  A
C2875      C2880   1.421       .  A
C2875      F2882   1.356       .  S
C2876      C2877   1.390       .  A
C2877      C2878   1.375       .  A
C2877      F2884   1.351       .  S
C2878      C2879   1.422       .  A
C2878      F2883   1.358       .  S
C2879      C2880   1.421       .  A
C2880      F2881   1.354       .  S
C2885      C2886   1.393       .  A
C2885      C2890   1.384       .  A
C2885      F2892   1.358       .  S
C2886      C2887   1.415       .  A
C2887      C2888   1.420       .  A
C2887      F2894   1.356       .  S
C2888      C2889   1.411       .  A
C2888      F2893   1.356       .  S
C2889      C2890   1.423       .  A
C2890      F2891   1.361       .  S
C2895      C2896   1.409       .  A
C2895      C2900   1.396       .  A
C2895      F2902   1.359       .  S
C2896      C2897   1.407       .  A
C2897      C2898   1.410       .  A
C2897      F2904   1.357       .  S
C2898      C2899   1.410       .  A
C2898      F2903   1.357       .  S
C2899      C2900   1.408       .  A
C2900      F2901   1.357       .  S
C2905      C2906   1.411       .  A
C2905      C2910   1.408       .  A
C2905      F2912   1.357       .  S
C2906      C2907   1.411       .  A
C2907      C2908   1.390       .  A
C2907      F2914   1.352       .  S
C2908      C2909   1.401       .  A
C2908      F2913   1.360       .  S
C2909      C2910   1.405       .  A
C2910      F2911   1.357       .  S
C2915      C2916   1.419       .  A
C2915      C2920   1.415       .  A
C2915      F2922   1.357       .  S
C2916      C2917   1.407       .  A
C2917      C2918   1.389       .  A
C2917      F2924   1.353       .  S
C2918      C2919   1.411       .  A
C2918      F2923   1.359       .  S
C2919      C2920   1.407       .  A
C2920      F2921   1.356       .  S
C2925      C2926   1.411       .  A
C2925      C2930   1.410       .  A
C2925      F2932   1.357       .  S
C2926      C2927   1.408       .  A
C2927      C2928   1.397       .  A
C2927      F2934   1.357       .  S
C2928      C2929   1.408       .  A
C2928      F2933   1.359       .  S
C2929      C2930   1.406       .  A
C2930      F2931   1.357       .  S
C2935      C2936   1.413       .  A
C2935      C2940   1.419       .  A
C2935      F2942   1.356       .  S
C2936      C2937   1.394       .  A
C2937      C2938   1.386       .  A
C2937      F2944   1.358       .  S
C2938      C2939   1.424       .  A
C2938      F2943   1.360       .  S
C2939      C2940   1.415       .  A
C2940      F2941   1.355       .  S
C2945      C2946   1.399       .  A
C2945      C2950   1.389       .  A
C2945      F2952   1.357       .  S
C2946      C2947   1.412       .  A
C2947      C2948   1.417       .  A
C2947      F2954   1.356       .  S
C2948      C2949   1.413       .  A
C2948      F2953   1.356       .  S
C2949      C2950   1.417       .  A
C2950      F2951   1.360       .  S
C2955      C2956   1.407       .  A
C2955      C2960   1.408       .  A
C2955      F2962   1.357       .  S
C2956      C2957   1.410       .  A
C2957      C2958   1.398       .  A
C2957      F2964   1.354       .  S
C2958      C2959   1.405       .  A
C2958      F2963   1.359       .  S
C2959      C2960   1.407       .  A
C2960      F2961   1.357       .  S
C2965      C2966   1.420       .  A
C2965      C2970   1.413       .  A
C2965      F2972   1.357       .  S
C2966      C2967   1.409       .  A
C2967      C2968   1.390       .  A
C2967      F2974   1.350       .  S
C2968      C2969   1.409       .  A
C2968      F2973   1.359       .  S
C2969      C2970   1.404       .  A
C2970      F2971   1.356       .  S
C2975      C2976   1.402   1_554  A
C2975      C2980   1.388       .  A
C2975      F2982   1.360       .  S
C2976      C2977   1.407       .  A
C2977      C2978   1.411       .  A
C2977      F2984   1.357       .  S
C2978      C2979   1.410       .  A
C2978      F2983   1.357       .  S
C2979      C2980   1.411   1_556  A
C2980      F2981   1.353       .  S
C2985      C2986   1.413       .  A
C2985      C2990   1.409       .  A
C2985      F2992   1.357   1_545  S
C2986      C2987   1.408       .  A
C2987      C2988   1.392       .  A
C2987      F2994   1.354       .  S
C2988      C2989   1.414       .  A
C2988      F2993   1.358       .  S
C2989      C2990   1.413       .  A
C2990      F2991   1.356       .  S
C2995      C2996   1.412       .  A
C2995      C3000   1.407       .  A
C2995      F3002   1.357       .  S
C2996      C2997   1.413       .  A
C2997      C2998   1.400       .  A
C2997      F3004   1.357       .  S
C2998      C2999   1.406       .  A
C2998      F3003   1.358       .  S
C2999      C3000   1.405       .  A
C3000      F3001   1.357       .  S
C3005      C3006   1.414       .  A
C3005      C3010   1.416       .  A
C3005      F3012   1.355       .  S
C3006      C3007   1.415       .  A
C3007      C3008   1.376       .  A
C3007      F3014   1.360       .  S
C3008      C3009   1.398       .  A
C3008      F3013   1.355       .  S
C3009      C3010   1.419       .  A
C3010      F3011   1.357       .  S
C3015      C3016   1.413       .  A
C3015      C3020   1.397       .  A
C3015      F3022   1.357       .  S
C3016      C3017   1.411       .  A
C3017      C3018   1.411       .  A
C3017      F3024   1.357       .  S
C3018      C3019   1.410       .  A
C3018      F3023   1.357       .  S
C3019      C3020   1.405       .  A
C3020      F3021   1.358       .  S
C3025      C3026   1.407       .  A
C3025      C3030   1.403       .  A
C3025      F3032   1.358       .  S
C3026      C3027   1.415       .  A
C3027      C3028   1.414       .  A
C3027      F3034   1.357       .  S
C3028      C3029   1.408       .  A
C3028      F3033   1.357       .  S
C3029      C3030   1.417       .  A
C3030      F3031   1.359       .  S
C3035      C3036   1.412       .  A
C3035      C3040   1.394       .  A
C3035      F3042   1.359       .  S
C3036      C3037   1.406       .  A
C3037      C3038   1.418       .  A
C3037      F3044   1.356       .  S
C3038      C3039   1.422       .  A
C3038      F3043   1.356       .  S
C3039      C3040   1.409       .  A
C3040      F3041   1.351       .  S
C3045      C3046   1.408   1_545  A
C3045      C3050   1.409       .  A
C3045      F3052   1.357       .  S
C3046      C3047   1.407       .  A
C3047      C3048   1.398       .  A
C3047      F3054   1.358       .  S
C3048      C3049   1.409   1_565  A
C3048      F3053   1.358       .  S
C3049      C3050   1.410       .  A
C3050      F3051   1.357       .  S
C3055      C3056   1.401       .  A
C3055      C3060   1.388       .  A
C3055      F3062   1.360   1_565  S
C3056      C3057   1.407       .  A
C3057      C3058   1.410       .  A
C3057      F3064   1.357       .  S
C3058      C3059   1.409       .  A
C3058      F3063   1.357       .  S
C3059      C3060   1.410       .  A
C3060      F3061   1.353   1_565  S
C3065      C3066   1.407       .  A
C3065      C3070   1.399       .  A
C3065      F3072   1.358       .  S
C3066      C3067   1.409       .  A
C3067      C3068   1.407       .  A
C3067      F3074   1.357       .  S
C3068      C3069   1.407       .  A
C3068      F3073   1.357       .  S
C3069      C3070   1.410       .  A
C3070      F3071   1.358       .  S
C3075      C3076   1.409       .  A
C3075      C3080   1.419       .  A
C3075      F3082   1.356       .  S
C3076      C3077   1.414       .  A
C3077      C3078   1.388       .  A
C3077      F3084   1.360       .  S
C3078      C3079   1.407       .  A
C3078      F3083   1.352       .  S
C3079      C3080   1.423       .  A
C3080      F3081   1.357       .  S
C3085      C3086   1.416       .  A
C3085      C3090   1.395       .  A
C3085      F3092   1.359       .  S
C3086      C3087   1.409       .  A
C3087      C3088   1.412       .  A
C3087      F3094   1.357       .  S
C3088      C3089   1.411       .  A
C3088      F3093   1.357       .  S
C3089      C3090   1.403       .  A
C3090      F3091   1.358       .  S
C3095      C3096   1.406       .  A
C3095      C3100   1.394       .  A
C3095      F3102   1.358       .  S
C3096      C3097   1.411       .  A
C3097      C3098   1.412       .  A
C3097      F3104   1.357       .  S
C3098      C3099   1.409       .  A
C3098      F3103   1.357       .  S
C3099      C3100   1.409       .  A
C3100      F3101   1.359       .  S
C3105      C3106   1.410       .  A
C3105      C3110   1.407       .  A
C3105      F3112   1.357       .  S
C3106      C3107   1.409   1_545  A
C3107      C3108   1.399       .  A
C3107      F3114   1.358       .  S
C3108      C3109   1.406   1_565  A
C3108      F3113   1.358       .  S
C3109      C3110   1.406       .  A
C3110      F3111   1.357       .  S
C3115      C3116   1.407       .  A
C3115      C3120   1.408       .  A
C3115      F3122   1.357       .  S
C3116      C3117   1.403   1_565  A
C3117      C3118   1.387       .  A
C3117      F3124   1.359       .  S
C3118      C3119   1.410   1_545  A
C3118      F3123   1.357       .  S
C3119      C3120   1.409       .  A
C3120      F3121   1.357       .  S
C3125      C3126   1.414       .  A
C3125      C3130   1.416       .  A
C3125      F3132   1.357       .  S
C3126      C3127   1.394       .  A
C3127      C3128   1.380       .  A
C3127      F3134   1.358       .  S
C3128      C3129   1.419       .  A
C3128      F3133   1.360   1_554  S
C3129      C3130   1.410       .  A
C3130      F3131   1.356       .  S
C3135      C3136   1.418       .  A
C3135      C3140   1.391       .  A
C3135      F3142   1.359   1_556  S
C3136      C3137   1.409       .  A
C3137      C3138   1.414       .  A
C3137      F3144   1.356       .  S
C3138      C3139   1.411       .  A
C3138      F3143   1.357       .  S
C3139      C3140   1.398       .  A
C3140      F3141   1.359       .  S
C3145      C3146   1.405       .  A
C3145      C3150   1.411       .  A
C3145      F3152   1.356       .  S
C3146      C3147   1.403       .  A
C3147      C3148   1.383       .  A
C3147      F3154   1.360       .  S
C3148      C3149   1.404       .  A
C3148      F3153   1.350       .  S
C3149      C3150   1.410       .  A
C3150      F3151   1.357       .  S
C3155      C3156   1.408       .  A
C3155      C3160   1.411       .  A
C3155      F3162   1.356       .  S
C3156      C3157   1.394       .  A
C3157      C3158   1.383   1_556  A
C3157      F3164   1.352   1_556  S
C3158      C3159   1.420       .  A
C3158      F3163   1.357       .  S
C3159      C3160   1.418   1_554  A
C3160      F3161   1.355       .  S
C3165      C3166   1.406       .  A
C3165      C3170   1.407       .  A
C3165      F3172   1.357       .  S
C3166      C3167   1.410       .  A
C3167      C3168   1.403       .  A
C3167      F3174   1.358       .  S
C3168      C3169   1.406       .  A
C3168      F3173   1.358       .  S
C3169      C3170   1.408       .  A
C3170      F3171   1.357       .  S
C3175      C3176   1.406       .  A
C3175      C3180   1.409       .  A
C3175      F3182   1.357       .  S
C3176      C3177   1.411       .  A
C3177      C3178   1.392       .  A
C3177      F3184   1.359       .  S
C3178      C3179   1.403       .  A
C3178      F3183   1.358       .  S
C3179      C3180   1.410       .  A
C3180      F3181   1.356       .  S
C3185      C3186   1.395       .  A
C3185      C3190   1.386       .  A
C3185      F3192   1.358       .  S
C3186      C3187   1.414       .  A
C3187      C3188   1.421       .  A
C3187      F3194   1.356       .  S
C3188      C3189   1.416       .  A
C3188      F3193   1.355       .  S
C3189      C3190   1.424       .  A
C3190      F3191   1.360   1_655  S
C3195      C3196   1.408       .  A
C3195      C3200   1.395       .  A
C3195      F3202   1.359       .  S
C3196      C3197   1.406       .  A
C3197      C3198   1.410       .  A
C3197      F3204   1.357       .  S
C3198      C3199   1.412       .  A
C3198      F3203   1.357       .  S
C3199      C3200   1.408       .  A
C3200      F3201   1.357       .  S
C3205      C3206   1.402       .  A
C3205      C3210   1.386       .  A
C3205      F3212   1.355       .  S
C3206      C3207   1.409       .  A
C3207      C3208   1.415       .  A
C3207      F3214   1.356       .  S
C3208      C3209   1.412       .  A
C3208      F3213   1.357       .  S
C3209      C3210   1.407       .  A
C3210      F3211   1.360       .  S
C3215      C3216   1.399       .  A
C3215      C3220   1.390       .  A
C3215      F3222   1.357       .  S
C3216      C3217   1.415       .  A
C3217      C3218   1.420       .  A
C3217      F3224   1.356   1_455  S
C3218      C3219   1.409       .  A
C3218      F3223   1.356       .  S
C3219      C3220   1.417       .  A
C3220      F3221   1.360       .  S
C3225      C3226   1.405       .  A
C3225      C3230   1.408       .  A
C3225      F3232   1.357       .  S
C3226      C3227   1.409       .  A
C3227      C3228   1.392       .  A
C3227      F3234   1.359       .  S
C3228      C3229   1.406       .  A
C3228      F3233   1.357       .  S
C3229      C3230   1.410       .  A
C3230      F3231   1.357       .  S
C3235      C3236   1.411       .  A
C3235      C3240   1.388       .  A
C3235      F3242   1.359       .  S
C3236      C3237   1.406       .  A
C3237      C3238   1.411       .  A
C3237      F3244   1.357       .  S
C3238      C3239   1.417       .  A
C3238      F3243   1.357       .  S
C3239      C3240   1.405       .  A
C3240      F3241   1.352       .  S
C3245      C3246   1.407       .  A
C3245      C3250   1.395       .  A
C3245      F3252   1.358       .  S
C3246      C3247   1.409   1_455  A
C3247      C3248   1.408       .  A
C3247      F3254   1.357       .  S
C3248      C3249   1.409       .  A
C3248      F3253   1.357       .  S
C3249      C3250   1.408   1_655  A
C3250      F3251   1.358       .  S
C3255      C3256   1.410       .  A
C3255      C3260   1.407       .  A
C3255      F3262   1.357       .  S
C3256      C3257   1.411   1_455  A
C3257      C3258   1.393       .  A
C3257      F3264   1.352       .  S
C3258      C3259   1.402   1_655  A
C3258      F3263   1.359       .  S
C3259      C3260   1.405       .  A
C3260      F3261   1.357       .  S
C3265      C3266   1.413       .  A
C3265      C3270   1.412       .  A
C3265      F3272   1.357       .  S
C3266      C3267   1.406       .  A
C3267      C3268   1.394       .  A
C3267      F3274   1.353       .  S
C3268      C3269   1.416       .  A
C3268      F3273   1.358       .  S
C3269      C3270   1.415       .  A
C3270      F3271   1.356       .  S
C3275      C3276   1.410       .  A
C3275      C3280   1.410       .  A
C3275      F3282   1.357       .  S
C3276      C3277   1.414       .  A
C3277      C3278   1.391       .  A
C3277      F3284   1.348       .  S
C3278      C3279   1.397       .  A
C3278      F3283   1.359       .  S
C3279      C3280   1.407       .  A
C3280      F3281   1.357       .  S
C3285      C3286   1.399       .  A
C3285      C3290   1.391       .  A
C3285      F3292   1.359       .  S
C3286      C3287   1.405       .  A
C3287      C3288   1.404       .  A
C3287      F3294   1.357       .  S
C3288      C3289   1.407       .  A
C3288      F3293   1.357       .  S
C3289      C3290   1.412       .  A
C3290      F3291   1.353       .  S
C3295      C3296   1.416       .  A
C3295      C3300   1.410       .  A
C3295      F3302   1.355       .  S
C3296      C3297   1.414       .  A
C3297      C3298   1.388       .  A
C3297      F3304   1.358       .  S
C3298      C3299   1.404       .  A
C3298      F3303   1.352       .  S
C3299      C3300   1.411       .  A
C3300      F3301   1.357       .  S
C3305      C3306   1.415   1_455  A
C3305      C3310   1.397       .  A
C3305      F3312   1.352       .  S
C3306      C3307   1.409       .  A
C3307      C3308   1.409       .  A
C3307      F3314   1.357       .  S
C3308      C3309   1.407       .  A
C3308      F3313   1.357       .  S
C3309      C3310   1.400   1_655  A
C3310      F3311   1.359       .  S
C3315      C3316   1.401       .  A
C3315      C3320   1.382       .  A
C3315      F3322   1.349       .  S
C3316      C3317   1.413       .  A
C3317      C3318   1.410       .  A
C3317      F3324   1.357       .  S
C3318      C3319   1.412       .  A
C3318      F3323   1.356       .  S
C3319      C3320   1.411       .  A
C3320      F3321   1.359       .  S
C3325      C3326   1.410       .  A
C3325      C3330   1.416       .  A
C3325      F3332   1.356       .  S
C3326      C3327   1.394       .  A
C3327      C3328   1.384       .  A
C3327      F3334   1.357       .  S
C3328      C3329   1.418       .  A
C3328      F3333   1.360       .  S
C3329      C3330   1.413       .  A
C3330      F3331   1.356       .  S
C3335      C3336   1.406       .  A
C3335      C3340   1.406       .  A
C3335      F3342   1.357       .  S
C3336      C3337   1.408       .  A
C3337      C3338   1.398       .  A
C3337      F3344   1.356       .  S
C3338      C3339   1.405       .  A
C3338      F3343   1.358       .  S
C3339      C3340   1.405       .  A
C3340      F3341   1.357       .  S
C3345      C3346   1.410       .  A
C3345      C3350   1.414       .  A
C3345      F3352   1.357       .  S
C3346      C3347   1.401       .  A
C3347      C3348   1.391       .  A
C3347      F3354   1.355       .  S
C3348      C3349   1.411       .  A
C3348      F3353   1.360       .  S
C3349      C3350   1.409       .  A
C3350      F3351   1.357       .  S
C3355      C3356   1.412       .  A
C3355      C3360   1.402       .  A
C3355      F3362   1.359   1_565  S
C3356      C3357   1.408       .  A
C3357      C3358   1.413       .  A
C3357      F3364   1.357       .  S
C3358      C3359   1.411       .  A
C3358      F3363   1.357       .  S
C3359      C3360   1.406       .  A
C3360      F3361   1.357   1_565  S
C3365      C3366   1.407       .  A
C3365      C3370   1.396       .  A
C3365      F3372   1.359       .  S
C3366      C3367   1.408   1_455  A
C3367      C3368   1.409       .  A
C3367      F3374   1.357       .  S
C3368      C3369   1.409       .  A
C3368      F3373   1.357       .  S
C3369      C3370   1.407   1_655  A
C3370      F3371   1.358       .  S
C3375      C3376   1.407       .  A
C3375      C3380   1.412       .  A
C3375      F3382   1.357       .  S
C3376      C3377   1.399       .  A
C3377      C3378   1.391       .  A
C3377      F3384   1.360   1_455  S
C3378      C3379   1.415       .  A
C3378      F3383   1.350   1_455  S
C3379      C3380   1.413       .  A
C3380      F3381   1.357       .  S
C3385      C3386   1.410       .  A
C3385      C3390   1.392       .  A
C3385      F3392   1.359       .  S
C3386      C3387   1.403       .  A
C3387      C3388   1.405       .  A
C3387      F3394   1.357       .  S
C3388      C3389   1.409       .  A
C3388      F3393   1.357       .  S
C3389      C3390   1.403       .  A
C3390      F3391   1.358       .  S
C3395      C3396   1.407       .  A
C3395      C3400   1.411       .  A
C3395      F3402   1.356       .  S
C3396      C3397   1.411       .  A
C3397      C3398   1.387       .  A
C3397      F3404   1.360       .  S
C3398      C3399   1.404       .  A
C3398      F3403   1.352       .  S
C3399      C3400   1.415       .  A
C3400      F3401   1.357       .  S
C3405      C3406   1.407       .  A
C3405      C3410   1.406       .  A
C3405      F3412   1.357       .  S
C3406      C3407   1.399       .  A
C3407      C3408   1.392       .  A
C3407      F3414   1.359       .  S
C3408      C3409   1.412       .  A
C3408      F3413   1.353       .  S
C3409      C3410   1.406       .  A
C3410      F3411   1.357       .  S
C3415      C3416   1.410       .  A
C3415      C3420   1.389       .  A
C3415      F3422   1.359       .  S
C3416      C3417   1.410       .  A
C3417      C3418   1.417       .  A
C3417      F3424   1.356       .  S
C3418      C3419   1.418       .  A
C3418      F3423   1.357       .  S
C3419      C3420   1.408       .  A
C3420      F3421   1.350       .  S
C3425      C3426   1.407       .  A
C3425      C3430   1.395       .  A
C3425      F3432   1.359       .  S
C3426      C3427   1.407       .  A
C3427      C3428   1.410       .  A
C3427      F3434   1.357       .  S
C3428      C3429   1.409       .  A
C3428      F3433   1.357       .  S
C3429      C3430   1.406       .  A
C3430      F3431   1.354       .  S
C3435      C3436   1.413       .  A
C3435      C3440   1.390       .  A
C3435      F3442   1.360       .  S
C3436      C3437   1.412   1_545  A
C3437      C3438   1.420       .  A
C3437      F3444   1.356       .  S
C3438      C3439   1.413       .  A
C3438      F3443   1.356       .  S
C3439      C3440   1.402   1_565  A
C3440      F3441   1.354       .  S
C3445      C3446   1.414       .  A
C3445      C3450   1.386       .  A
C3445      F3452   1.358       .  S
C3446      C3447   1.419       .  A
C3447      C3448   1.414       .  A
C3447      F3454   1.355       .  S
C3448      C3449   1.411       .  A
C3448      F3453   1.357       .  S
C3449      C3450   1.400       .  A
C3450      F3451   1.349       .  S
C3455      C3456   1.414   1_455  A
C3455      C3460   1.392       .  A
C3455      F3462   1.349       .  S
C3456      C3457   1.413       .  A
C3457      C3458   1.415       .  A
C3457      F3464   1.357       .  S
C3458      C3459   1.408       .  A
C3458      F3463   1.357       .  S
C3459      C3460   1.400   1_655  A
C3460      F3461   1.359       .  S
C3465      C3466   1.410       .  A
C3465      C3470   1.410       .  A
C3465      F3472   1.355       .  S
C3466      C3467   1.404       .  A
C3467      C3468   1.393       .  A
C3467      F3474   1.357       .  S
C3468      C3469   1.410       .  A
C3468      F3473   1.359       .  S
C3469      C3470   1.408       .  A
C3470      F3471   1.357       .  S
C3475      C3476   1.415       .  A
C3475      C3480   1.417       .  A
C3475      F3482   1.356       .  S
C3476      C3477   1.403   1_655  A
C3477      C3478   1.399       .  A
C3477      F3484   1.358       .  S
C3478      C3479   1.415   1_455  A
C3478      F3483   1.359       .  S
C3479      C3480   1.408       .  A
C3480      F3481   1.357       .  S
C3485      C3486   1.411       .  A
C3485      C3490   1.411       .  A
C3485      F3492   1.357       .  S
C3486      C3487   1.408       .  A
C3487      C3488   1.386       .  A
C3487      F3494   1.346       .  S
C3488      C3489   1.399       .  A
C3488      F3493   1.360       .  S
C3489      C3490   1.406       .  A
C3490      F3491   1.357       .  S
C3495      C3496   1.400       .  A
C3495      C3500   1.389       .  A
C3495      F3502   1.351       .  S
C3496      C3497   1.417       .  A
C3497      C3498   1.419       .  A
C3497      F3504   1.356       .  S
C3498      C3499   1.413       .  A
C3498      F3503   1.356       .  S
C3499      C3500   1.415       .  A
C3500      F3501   1.359       .  S
C3505      C3506   1.399       .  A
C3505      C3510   1.389       .  A
C3505      F3512   1.360       .  S
C3506      C3507   1.405       .  A
C3507      C3508   1.411       .  A
C3507      F3514   1.357       .  S
C3508      C3509   1.414       .  A
C3508      F3513   1.357       .  S
C3509      C3510   1.412       .  A
C3510      F3511   1.348       .  S
C3515      C3516   1.413       .  A
C3515      C3520   1.409       .  A
C3515      F3522   1.356       .  S
C3516      C3517   1.414       .  A
C3517      C3518   1.388       .  A
C3517      F3524   1.359       .  S
C3518      C3519   1.400       .  A
C3518      F3523   1.358       .  S
C3519      C3520   1.405       .  A
C3520      F3521   1.357       .  S
C3525      C3526   1.416       .  A
C3525      C3530   1.416       .  A
C3525      F3532   1.355       .  S
C3526      C3527   1.421       .  A
C3527      C3528   1.388       .  A
C3527      F3534   1.358       .  S
C3528      C3529   1.396       .  A
C3528      F3533   1.355       .  S
C3529      C3530   1.411       .  A
C3530      F3531   1.355       .  S
C3535      C3536   1.407       .  A
C3535      C3540   1.395       .  A
C3535      F3542   1.359       .  S
C3536      C3537   1.409       .  A
C3537      C3538   1.414       .  A
C3537      F3544   1.357       .  S
C3538      C3539   1.410       .  A
C3538      F3543   1.357       .  S
C3539      C3540   1.409       .  A
C3540      F3541   1.355       .  S
C3545      C3546   1.407       .  A
C3545      C3550   1.412       .  A
C3545      F3552   1.356       .  S
C3546      C3547   1.412       .  A
C3547      C3548   1.383       .  A
C3547      F3554   1.360       .  S
C3548      C3549   1.401       .  A
C3548      F3553   1.360       .  S
C3549      C3550   1.412       .  A
C3550      F3551   1.356       .  S
C3555      C3556   1.408       .  A
C3555      C3560   1.383       .  A
C3555      F3562   1.360       .  S
C3556      C3557   1.411       .  A
C3557      C3558   1.412       .  A
C3557      F3564   1.357       .  S
C3558      C3559   1.408       .  A
C3558      F3563   1.357       .  S
C3559      C3560   1.402       .  A
C3560      F3561   1.355       .  S
C3565      C3566   1.415       .  A
C3565      C3570   1.411       .  A
C3565      F3572   1.357       .  S
C3566      C3567   1.405       .  A
C3567      C3568   1.388       .  A
C3567      F3574   1.353       .  S
C3568      C3569   1.411       .  A
C3568      F3573   1.359       .  S
C3569      C3570   1.409       .  A
C3570      F3571   1.356       .  S
C3575      C3576   1.407       .  A
C3575      C3580   1.410       .  A
C3575      F3582   1.357       .  S
C3576      C3577   1.399       .  A
C3577      C3578   1.395       .  A
C3577      F3584   1.359       .  S
C3578      C3579   1.414       .  A
C3578      F3583   1.351       .  S
C3579      C3580   1.408       .  A
C3580      F3581   1.357       .  S
C3585      C3586   1.402       .  A
C3585      C3590   1.384       .  A
C3585      F3592   1.360       .  S
C3586      C3587   1.408       .  A
C3587      C3588   1.415       .  A
C3587      F3594   1.356       .  S
C3588      C3589   1.412       .  A
C3588      F3593   1.357       .  S
C3589      C3590   1.406       .  A
C3590      F3591   1.347       .  S
C3595      C3596   1.414       .  A
C3595      C3600   1.415       .  A
C3595      F3602   1.356       .  S
C3596      C3597   1.413       .  A
C3597      C3598   1.384       .  A
C3597      F3604   1.360       .  S
C3598      C3599   1.400       .  A
C3598      F3603   1.353       .  S
C3599      C3600   1.410       .  A
C3600      F3601   1.357       .  S
C3605      C3606   1.399       .  A
C3605      C3610   1.395       .  A
C3605      F3612   1.359       .  S
C3606      C3607   1.405       .  A
C3607      C3608   1.417       .  A
C3607      F3614   1.357       .  S
C3608      C3609   1.421       .  A
C3608      F3613   1.354       .  S
C3609      C3610   1.418       .  A
C3610      F3611   1.348       .  S
C3615      C3616   1.406       .  A
C3615      C3620   1.398       .  A
C3615      F3622   1.359       .  S
C3616      C3617   1.405       .  A
C3617      C3618   1.409       .  A
C3617      F3624   1.357       .  S
C3618      C3619   1.409       .  A
C3618      F3623   1.357       .  S
C3619      C3620   1.408       .  A
C3620      F3621   1.354       .  S
C3625      C3626   1.401       .  A
C3625      C3630   1.382       .  A
C3625      F3632   1.346       .  S
C3626      C3627   1.417       .  A
C3627      C3628   1.415       .  A
C3627      F3634   1.356   1_655  S
C3628      C3629   1.407       .  A
C3628      F3633   1.356       .  S
C3629      C3630   1.408       .  A
C3630      F3631   1.360       .  S
C3635      C3636   1.415       .  A
C3635      C3640   1.421       .  A
C3635      F3642   1.357       .  S
C3636      C3637   1.418       .  A
C3637      C3638   1.384       .  A
C3637      F3644   1.347   1_545  S
C3638      C3639   1.396       .  A
C3638      F3643   1.361   1_545  S
C3639      C3640   1.412       .  A
C3640      F3641   1.356       .  S
C3645      C3646   1.406       .  A
C3645      C3650   1.383       .  A
C3645      F3652   1.346       .  S
C3646      C3647   1.424       .  A
C3647      C3648   1.423       .  A
C3647      F3654   1.354   1_565  S
C3648      C3649   1.410       .  A
C3648      F3653   1.356       .  S
C3649      C3650   1.403       .  A
C3650      F3651   1.361       .  S
C3655      C3656   1.410       .  A
C3655      C3660   1.417       .  A
C3655      F3662   1.356       .  S
C3656      C3657   1.395   1_455  A
C3657      C3658   1.375       .  A
C3657      F3664   1.363       .  S
C3658      C3659   1.405   1_655  A
C3658      F3663   1.360       .  S
C3659      C3660   1.411       .  A
C3660      F3661   1.356       .  S
C3665      C3666   1.412   1_565  A
C3665      C3670   1.401   1_565  A
C3665      F3672   1.359       .  S
C3666      C3667   1.406       .  A
C3667      C3668   1.411       .  A
C3667      F3674   1.357       .  S
C3668      C3669   1.412       .  A
C3668      F3673   1.356       .  S
C3669      C3670   1.405       .  A
C3670      F3671   1.358   1_545  S
C3675      C3676   1.405   1_655  A
C3675      C3680   1.397       .  A
C3675      F3682   1.358       .  S
C3676      C3677   1.410       .  A
C3677      C3678   1.410       .  A
C3677      F3684   1.354       .  S
C3678      C3679   1.411   1_455  A
C3678      F3683   1.357       .  S
C3679      C3680   1.412       .  A
C3680      F3681   1.359       .  S
C3685      C3686   1.423       .  A
C3685      C3690   1.418       .  A
C3685      F3692   1.357   1_556  S
C3686      C3687   1.409       .  A
C3687      C3688   1.393       .  A
C3687      F3694   1.352       .  S
C3688      C3689   1.411       .  A
C3688      F3693   1.359       .  S
C3689      C3690   1.406       .  A
C3690      F3691   1.356       .  S
C3695      C3696   1.410   1_655  A
C3695      C3700   1.386       .  A
C3695      F3702   1.354       .  S
C3696      C3697   1.412       .  A
C3697      C3698   1.411       .  A
C3697      F3704   1.357   1_556  S
C3698      C3699   1.406       .  A
C3698      F3703   1.357       .  S
C3699      C3700   1.402   1_455  A
C3700      F3701   1.360       .  S
C3705      C3706   1.402       .  A
C3705      C3710   1.390       .  A
C3705      F3712   1.358       .  S
C3706      C3707   1.412       .  A
C3707      C3708   1.416       .  A
C3707      F3714   1.357       .  S
C3708      C3709   1.411       .  A
C3708      F3713   1.356       .  S
C3709      C3710   1.417       .  A
C3710      F3711   1.359   1_554  S
C3715      C3716   1.407       .  A
C3715      C3720   1.392       .  A
C3715      F3722   1.358       .  S
C3716      C3717   1.412       .  A
C3717      C3718   1.413       .  A
C3717      F3724   1.357       .  S
C3718      C3719   1.409       .  A
C3718      F3723   1.357       .  S
C3719      C3720   1.409       .  A
C3720      F3721   1.359       .  S
C3725      C3726   1.406       .  A
C3725      C3730   1.399       .  A
C3725      F3732   1.357       .  S
C3726      C3727   1.412   1_554  A
C3727      C3728   1.396       .  A
C3727      F3734   1.358       .  S
C3728      C3729   1.402   1_556  A
C3728      F3733   1.358       .  S
C3729      C3730   1.404       .  A
C3730      F3731   1.358       .  S
C3735      C3736   1.407       .  A
C3735      C3740   1.393       .  A
C3735      F3742   1.354       .  S
C3736      C3737   1.415       .  A
C3737      C3738   1.412       .  A
C3737      F3744   1.357       .  S
C3738      C3739   1.411       .  A
C3738      F3743   1.356       .  S
C3739      C3740   1.416       .  A
C3740      F3741   1.359       .  S
