geometry optimzed in LAMMPS
_audit_creation_date              2020-11-30 
_audit_creation_method            'lammps2cif' 
_symmetry_space_group_name_H-M    'P1' 
_symmetry_Int_Tables_number       1 
_symmetry_cell_setting            triclinic 
loop_ 
_symmetry_equiv_pos_as_xyz 
  x,y,z 
_cell_length_a                    34.36845981 
_cell_length_b                    32.486912154505035 
_cell_length_c                    32.8852703438373 
_cell_angle_alpha                 91.88678488742252 
_cell_angle_beta                  90.39311353964774 
_cell_angle_gamma                 90.74035164092557 
loop_ 
_atom_site_label 
_atom_site_type_symbol 
_atom_site_fract_x 
_atom_site_fract_y 
_atom_site_fract_z 
_atom_site_charge 
O1          O  0.57465067  0.97067985  0.45743494    -0.80200
O2          O  0.42950602  0.95302381  0.53856443    -0.80200
O3          O  0.50923821  0.94934940  0.56481744    -0.80200
O4          O  0.49526360  0.94437614  0.42677326    -0.80200
O5          O  0.47046871  0.99274862  0.59212438    -0.80300
O6          O  0.52617938  0.99724645  0.40444082    -0.80200
O7          O  0.43739739  0.92269671  0.47950422    -0.80200
O8          O  0.57108791  0.94189719  0.51562439    -0.80200
C9          C  0.58551333  0.94311477  0.48054319     1.09500
C10         C  0.42460166  0.92206968  0.51539453     1.09400
C11         C  0.49468722  0.96353696  0.59657400     1.09500
C12         C  0.50782573  0.96318115  0.39684401     1.09400
O13         O  0.50413622  0.06415484  0.46236511    -0.80200
O14         O  0.47753513  0.06224203  0.53464666    -0.80300
O15         O  0.58107036  0.03199892  0.51723376    -0.80200
O16         O  0.41031609  0.00906653  0.48034232    -0.80200
O17         O  0.40478921  0.03021069  0.54539454    -0.80200
O18         O  0.58239023  0.05166049  0.45273673    -0.80200
O19         O  0.46416843  0.02856766  0.42281429    -0.80100
O20         O  0.52228903  0.04008836  0.57478702    -0.80200
Co21       Co  0.53816526  0.01693115  0.46397968     1.51500
Co22       Co  0.45469535  0.00720925  0.53276398     1.51700
Co23       Co  0.54292454  0.98982790  0.54062150     1.51600
Co24       Co  0.45496876  0.97576995  0.45497532     1.51500
O25         O  0.49880441  0.98745335  0.49760747    -1.42100
C26         C  0.48340415  0.06193781  0.43080649     1.09400
C27         C  0.49636621  0.06689330  0.56718333     1.09500
C28         C  0.59596930  0.05397632  0.48910004     1.09500
C29         C  0.39167299  0.02837464  0.50888001     1.09400
O30         O  0.94882229  0.54943816  0.50588310    -0.80200
O31         O  0.95151409  0.43805298  0.49233801    -0.80200
O32         O  0.96427024  0.50171000  0.43256977    -0.80200
O33         O  0.00190457  0.47069713  0.59861802    -0.80200
O34         O  0.97512931  0.43823301  0.41126695    -0.80300
O35         O  0.95326269  0.50520390  0.57461377    -0.80200
O36         O  0.99007424  0.41147917  0.53855633    -0.80200
O37         O  0.98559873  0.57603214  0.46096963    -0.80200
C38         C  0.95550267  0.57891711  0.48335212     1.09500
C39         C  0.95816274  0.41016478  0.51727329     1.09400
C40         C  0.95756968  0.47215917  0.40663461     1.09500
C41         C  0.96604285  0.47823337  0.59820862     1.09400
O42         O  0.02956063  0.54219701  0.59077705    -0.80200
O43         O  0.04712290  0.47110771  0.43299285    -0.80300
O44         O  0.06296805  0.54623736  0.48208264    -0.80200
O45         O  0.06679735  0.43982864  0.50566418    -0.80200
O46         O  0.02530822  0.40256958  0.47317746    -0.80200
O47         O  0.02755417  0.58655136  0.52143634    -0.80200
O48         O  0.07302337  0.49893323  0.56609982    -0.80100
O49         O  0.03467048  0.52907267  0.40327442    -0.80200
Co50       Co  0.98966515  0.54364239  0.54653975     1.51500
Co51       Co  0.99729021  0.45738822  0.46352999     1.51700
Co52       Co  0.01579574  0.52146004  0.45840199     1.51600
Co53       Co  0.03296792  0.45674598  0.55008867     1.51500
O54         O  0.00833442  0.49557703  0.51242630    -1.42100
C55         C  0.06403830  0.52850919  0.59025605     1.09400
C56         C  0.05167642  0.49430759  0.40264706     1.09500
C57         C  0.05692928  0.58152556  0.49759804     1.09500
C58         C  0.05674731  0.40445835  0.49384157     1.09400
O59         O  0.45670208  0.51936275  0.02373502    -0.80200
O60         O  0.61705987  0.46404335  0.00820420    -0.80200
O61         O  0.51167193  0.45627535  0.04685411    -0.80200
O62         O  0.53061049  0.56087816  0.04642466    -0.80200
O63         O  0.55186544  0.41439302  0.01477831    -0.80300
O64         O  0.49339182  0.58696319  0.00116097    -0.80200
O65         O  0.59256414  0.50780486  0.05326362    -0.80200
O66         O  0.43505719  0.45599328  0.01560326    -0.80200
C67         C  0.43050661  0.49209487  0.03083496     1.09500
C68         C  0.61524228  0.47828637  0.04431566     1.09400
C69         C  0.52851725  0.42208953  0.04471873     1.09500
C70         C  0.51285535  0.59166091  0.03419105     1.09400
O71         O  0.51830830  0.54688021  0.92531501    -0.80200
O72         O  0.53466266  0.43426674  0.92858483    -0.80300
O73         O  0.46150542  0.47822089  0.94027265    -0.80200
O74         O  0.61866747  0.53376079  0.97498993    -0.80200
O75         O  0.59814425  0.48839581  0.92774772    -0.80200
O76         O  0.43933398  0.54105901  0.94561343    -0.80200
O77         O  0.55658034  0.58531917  0.96528798    -0.80100
O78         O  0.49354394  0.41079658  0.97110137    -0.80200
Co79       Co  0.48880867  0.52969576  0.97220778     1.51500
Co80       Co  0.57328656  0.45253710  0.96965754     1.51700
Co81       Co  0.48724238  0.46937433  0.99575172     1.51600
Co82       Co  0.57266878  0.54468038  0.00975680     1.51500
O83         O  0.53789408  0.49924540  0.98657151    -1.42100
C84         C  0.53469190  0.58116661  0.93331794     1.09400
C85         C  0.51486708  0.40414969  0.94011229     1.09500
C86         C  0.43553589  0.50430516  0.93094798     1.09500
C87         C  0.61979878  0.51897142  0.93888925     1.09400
N88         N  0.63463877  0.95314670  0.73734994    -0.03500
C89         C  0.64529342  0.98535640  0.76252305    -0.00900
C90         C  0.64962418  0.02037074  0.73974645    -0.23800
C91         C  0.63419406  0.01093124  0.70214067    -0.24000
C92         C  0.62132365  0.97056116  0.70315119    -0.01000
H93         H  0.65320678  0.05172832  0.75127067     0.12800
H94         H  0.62497689  0.03348759  0.68066751     0.12800
C95         C  0.78288688  0.76843344  0.70563495     0.80200
N96         N  0.75820035  0.80108776  0.70637076    -0.78100
C97         C  0.73465121  0.80900886  0.73896486     0.82600
N98         N  0.73607238  0.78318050  0.77061266    -0.78100
C99         C  0.75975659  0.74986659  0.77019130     0.82700
N100        N  0.78313330  0.74267365  0.73751579    -0.79800
N101        N  0.88361200  0.75157097  0.56493544    -0.03500
C102        C  0.89490366  0.78992766  0.55454499    -0.00900
C103        C  0.88286824  0.79740726  0.51536700    -0.23800
C104        C  0.86974548  0.76059044  0.49898197    -0.24000
C105        C  0.87509104  0.73164999  0.52858915    -0.01000
H106        H  0.89015800  0.82418417  0.49810966     0.12800
H107        H  0.86484211  0.75439641  0.46679827     0.12800
N108        N  0.75932660  0.65290823  0.91459489    -0.03500
C109        C  0.78073651  0.66111438  0.94914422    -0.00900
C110        C  0.75617277  0.66132800  0.98245687    -0.23800
C111        C  0.71992548  0.64990189  0.96833388    -0.24000
C112        C  0.72307992  0.64223879  0.92692617    -0.01000
H113        H  0.76425728  0.66190469  0.01425514     0.12800
H114        H  0.69613366  0.64012799  0.98732589     0.12800
C115        C  0.27899926  0.22795125  0.74606079     0.80200
N116        N  0.28107529  0.25935159  0.77474090    -0.78100
C117        C  0.25219549  0.28779941  0.77795835     0.82600
N118        N  0.22058963  0.28388717  0.75254043    -0.78100
C119        C  0.21788254  0.25273988  0.72358569     0.82700
N120        N  0.24737030  0.22500167  0.72055657    -0.79800
N121        N  0.26200892  0.42478722  0.89748144    -0.03500
C122        C  0.28654306  0.45861939  0.89751343    -0.00900
C123        C  0.27677005  0.48650005  0.92833420    -0.23800
C124        C  0.24590240  0.47051085  0.94787221    -0.24000
C125        C  0.23688613  0.43317813  0.92888721    -0.01000
H126        H  0.29219019  0.51457196  0.93760200     0.12800
H127        H  0.23082574  0.48501831  0.97321517     0.12800
N128        N  0.39310392  0.09681553  0.73728826    -0.03500
C129        C  0.39031650  0.06275953  0.76078586    -0.00900
C130        C  0.39680072  0.02723518  0.73769855    -0.23800
C131        C  0.40580235  0.03915879  0.69952198    -0.24000
C132        C  0.40474869  0.08165648  0.69997979    -0.01000
H133        H  0.39926559  0.99626219  0.74851474     0.12800
H134        H  0.41687304  0.01925767  0.67531085     0.12800
N135        N  0.07707219  0.24751766  0.62251219    -0.03500
C136        C  0.04235487  0.22840397  0.63134264    -0.00900
C137        C  0.01320670  0.25750911  0.63385038    -0.23800
C138        C  0.02893785  0.29388254  0.62224250    -0.24000
C139        C  0.06703589  0.28626096  0.61197218    -0.01000
H140        H  0.98227008  0.25215790  0.63583043     0.12800
H141        H  0.01221236  0.32027924  0.61369162     0.12800
O142        O  0.47515218  0.05030524  0.93004647    -0.80200
O143        O  0.46382571  0.97154005  0.08195838    -0.80200
O144        O  0.45283655  0.93751894  0.99195645    -0.80200
O145        O  0.45772642  0.08457448  0.01677243    -0.80200
O146        O  0.49390692  0.91574028  0.03688229    -0.80300
O147        O  0.50600594  0.10289286  0.97880233    -0.80200
O148        O  0.44068009  0.03235651  0.07415476    -0.80200
O149        O  0.44557184  0.99154911  0.93192110    -0.80200
C150        C  0.44759128  0.02723042  0.91822673     1.09500
C151        C  0.43719986  0.99694713  0.08794799     1.09400
C152        C  0.46446808  0.90888084  0.01341145     1.09500
C153        C  0.47424954  0.11166854  0.99685963     1.09400
O154        O  0.56775518  0.04234113  0.99957070    -0.80200
O155        O  0.56334177  0.96872773  0.02412910    -0.80300
O156        O  0.53036857  0.99061450  0.91852154    -0.80200
O157        O  0.52382440  0.02753634  0.09735065    -0.80200
O158        O  0.53851764  0.96112705  0.10209604    -0.80200
O159        O  0.55097270  0.05617007  0.92066853    -0.80200
O160        O  0.54093488  0.08627551  0.04089742    -0.80100
O161        O  0.53622917  0.92911158  0.97758610    -0.80200
Co162      Co  0.52071421  0.04242088  0.96615024     1.51500
Co163      Co  0.51350593  0.97459197  0.05173230     1.51700
Co164      Co  0.49102962  0.96551479  0.95887980     1.51600
Co165      Co  0.49046330  0.05446363  0.05366507     1.51500
O166        O  0.49308975  0.00933119  0.00707306    -1.42100
C167        C  0.57021773  0.07575929  0.01945806     1.09400
C168        C  0.56363371  0.93549417  0.00359023     1.09500
C169        C  0.55092776  0.02031000  0.90378469     1.09500
C170        C  0.54100249  0.99834798  0.11587187     1.09400
C171        C  0.29534438  0.74115688  0.79733848     0.80200
N172        N  0.29671969  0.76879913  0.76692728    -0.78100
C173        C  0.26957084  0.76713183  0.73620106     0.82600
N174        N  0.24034589  0.73831229  0.73673782    -0.78100
C175        C  0.23809567  0.71118745  0.76735921     0.82700
N176        N  0.26591959  0.71270236  0.79692534    -0.79800
N177        N  0.40625733  0.73102660  0.93187378    -0.03500
C178        C  0.39798017  0.74746475  0.96961759    -0.00900
C179        C  0.39715089  0.71667424  0.99781054    -0.23800
C180        C  0.41116554  0.68211020  0.97862568    -0.24000
C181        C  0.41944309  0.69261210  0.93919752    -0.01000
H182        H  0.39420024  0.72082257  0.03043285     0.12800
H183        H  0.42130501  0.65513096  0.99378134     0.12800
N184        N  0.26813315  0.89408449  0.61655661    -0.03500
C185        C  0.24464664  0.92785355  0.61720491    -0.00900
C186        C  0.26564910  0.96224573  0.60587388    -0.23800
C187        C  0.30210708  0.94935513  0.59601130    -0.24000
C188        C  0.30271154  0.90749658  0.60160555    -0.01000
H189        H  0.25429301  0.99243769  0.60006577     0.12800
H190        H  0.32445408  0.96761900  0.58180669     0.12800
N191        N  0.12214693  0.58075036  0.77242535    -0.03500
C192        C  0.12700847  0.54881054  0.74539057    -0.00900
C193        C  0.11681726  0.51203517  0.76271824    -0.23800
C194        C  0.10381267  0.52179022  0.80097559    -0.24000
C195        C  0.10573711  0.56425911  0.80573166    -0.01000
H196        H  0.11332115  0.48224691  0.74733510     0.12800
H197        H  0.08833339  0.50091154  0.82035451     0.12800
C198        C  0.75902658  0.27109110  0.25992823     0.80200
N199        N  0.78592052  0.26727321  0.29017630    -0.78100
C200        C  0.77967741  0.24075320  0.32096354     0.82600
N201        N  0.74618625  0.21722449  0.32043653    -0.78100
C202        C  0.71904248  0.22067174  0.29017420     0.82700
N203        N  0.72585323  0.24788485  0.26032171    -0.79800
N204        N  0.88687433  0.22970613  0.45849834    -0.03500
C205        C  0.88197993  0.24877347  0.49587768    -0.00900
C206        C  0.87956078  0.21928003  0.52531279    -0.23800
C207        C  0.88915715  0.18248714  0.50682565    -0.24000
C208        C  0.89622179  0.19011217  0.46637559    -0.01000
H209        H  0.87650115  0.22443678  0.55777354     0.12800
H210        H  0.89694485  0.15503211  0.52264899     0.12800
N211        N  0.76102862  0.36882133  0.11654609    -0.03500
C212        C  0.78610833  0.35976037  0.08548922    -0.00900
C213        C  0.76563891  0.34483878  0.05174093    -0.23800
C214        C  0.72705381  0.34846459  0.06063266    -0.24000
C215        C  0.72483732  0.36719266  0.09890787    -0.01000
H216        H  0.77684067  0.34015896  0.02129259     0.12800
H217        H  0.70402405  0.34720065  0.03795421     0.12800
N218        N  0.57558680  0.12381464  0.27351495    -0.03500
C219        C  0.54106565  0.13959218  0.28733167    -0.00900
C220        C  0.51748225  0.14916237  0.25473017    -0.23800
C221        C  0.53483842  0.13311194  0.22064393    -0.24000
C222        C  0.56843654  0.11434129  0.23340291    -0.01000
H223        H  0.48769680  0.15949653  0.25608881     0.12800
H224        H  0.52043774  0.12804146  0.19147918     0.12800
O225        O  0.91299446  0.53196377  0.97071159    -0.80200
O226        O  0.07734754  0.54477095  0.01378476    -0.80200
O227        O  0.00861385  0.56839227  0.05852419    -0.80200
O228        O  0.01653362  0.56746550  0.95680277    -0.80200
O229        O  0.04475878  0.52282158  0.08470069    -0.80300
O230        O  0.97432551  0.53377558  0.91791801    -0.80200
O231        O  0.09067030  0.53397515  0.94930566    -0.80200
O232        O  0.94239533  0.57700611  0.01202375    -0.80200
C233        C  0.91680973  0.56852639  0.98474757     1.09500
C234        C  0.10068709  0.54946618  0.98383714     1.09400
C235        C  0.02667812  0.55667473  0.08905555     1.09500
C236        C  0.99835837  0.56435538  0.92369768     1.09400
O237        O  0.99066236  0.44762874  0.94423689    -0.80200
O238        O  0.01722068  0.44595645  0.05065098    -0.80300
O239        O  0.91434676  0.49959764  0.04135291    -0.80200
O240        O  0.06639029  0.45972730  0.97673696    -0.80200
O241        O  0.09511074  0.46714389  0.03628123    -0.80200
O242        O  0.93010445  0.45074928  0.99672698    -0.80200
O243        O  0.02836646  0.48733782  0.91207809    -0.80100
O244        O  0.97929645  0.48774267  0.08693945    -0.80200
Co245      Co  0.95406028  0.49069412  0.95912020     1.51500
Co246      Co  0.04484280  0.49319956  0.02881180     1.51700
Co247      Co  0.96310209  0.53319662  0.04774449     1.51600
Co248      Co  0.04065530  0.51548264  0.96832490     1.51500
O249        O  0.99317170  0.50733402  0.00223371    -1.42100
C250        C  0.00657749  0.45532281  0.91141399     1.09400
C251        C  0.99736877  0.45331984  0.08240257     1.09500
C252        C  0.91013974  0.46305106  0.02703293     1.09500
C253        C  0.09536333  0.45198663  0.99990135     1.09400
N254        N  0.26378374  0.09606676  0.37487206    -0.03500
C255        C  0.23864872  0.06546430  0.36227453    -0.00900
C256        C  0.25932152  0.03108904  0.34989094    -0.23800
C257        C  0.29683740  0.03818097  0.36249594    -0.24000
C258        C  0.29722665  0.07577455  0.38381729    -0.01000
H259        H  0.24745340  0.00083533  0.34197672     0.12800
H260        H  0.31728259  0.01365645  0.36688354     0.12800
C261        C  0.25423057  0.23168641  0.26194543     0.80200
N262        N  0.22209819  0.25574496  0.26035978    -0.78100
C263        C  0.21861851  0.28575892  0.23265989     0.82600
N264        N  0.24783416  0.29129498  0.20544541    -0.78100
C265        C  0.28002775  0.26689876  0.20545183     0.82700
N266        N  0.28310587  0.23768103  0.23428219    -0.79800
N267        N  0.07119824  0.37026956  0.24140322    -0.03500
C268        C  0.03617924  0.35895241  0.22395385    -0.00900
C269        C  0.00954229  0.35063349  0.25415610    -0.23800
C270        C  0.02685395  0.36196966  0.29046976    -0.24000
C271        C  0.06349464  0.37697421  0.28158076    -0.01000
H272        H  0.97869749  0.34463786  0.24992328     0.12800
H273        H  0.01175475  0.36619152  0.31903719     0.12800
N274        N  0.39848145  0.27800200  0.07968139    -0.03500
C275        C  0.40838909  0.31713473  0.07009490    -0.00900
C276        C  0.39721984  0.32441190  0.03053593    -0.23800
C277        C  0.38683660  0.28710541  0.01312072    -0.24000
C278        C  0.39139750  0.25839664  0.04292296    -0.01000
H279        H  0.40495457  0.35129539  0.01356448     0.12800
H280        H  0.38556690  0.28095915  0.98059383     0.12800
C281        C  0.76544924  0.18405098  0.73105802     0.80200
N282        N  0.73503193  0.18578632  0.75745056    -0.78100
C283        C  0.73190231  0.21708834  0.78574525     0.82600
N284        N  0.76063668  0.24628690  0.78824066    -0.78100
C285        C  0.79151057  0.24546722  0.76229948     0.82700
N286        N  0.79326404  0.21447050  0.73318956    -0.79800
N287        N  0.88945351  0.39150191  0.75492622    -0.03500
C288        C  0.87398771  0.41643102  0.72654962    -0.00900
C289        C  0.86356706  0.45359886  0.74511738    -0.23800
C290        C  0.87934682  0.45438677  0.78334982    -0.24000
C291        C  0.89741472  0.41711925  0.78761930    -0.01000
H292        H  0.85468713  0.48100499  0.72987060     0.12800
H293        H  0.88358792  0.48177355  0.80261606     0.12800
N294        N  0.59985644  0.22331902  0.89553617    -0.03500
C295        C  0.59130800  0.18419950  0.90676427    -0.00900
C296        C  0.55384772  0.17310014  0.89510997    -0.23800
C297        C  0.53703666  0.20760087  0.88069525    -0.24000
C298        C  0.56453492  0.23909554  0.88468510    -0.01000
H299        H  0.53824415  0.14543503  0.90326595     0.12800
H300        H  0.50615603  0.21094215  0.87524157     0.12800
N301        N  0.74777447  0.05879812  0.60301213    -0.03500
C302        C  0.70941431  0.05491846  0.59259007    -0.00900
C303        C  0.69765188  0.01417696  0.59409218    -0.23800
C304        C  0.73029487  0.99163445  0.59988079    -0.24000
C305        C  0.76116825  0.01927599  0.60442140    -0.01000
H306        H  0.67007411  0.00144828  0.58316609     0.12800
H307        H  0.73120744  0.95870571  0.59475331     0.12800
C308        C  0.73555623  0.72679704  0.20971648     0.80200
N309        N  0.76403562  0.69733034  0.21006767    -0.78100
C310        C  0.79037972  0.69670780  0.24177699     0.82600
N311        N  0.78685168  0.72513875  0.27305598    -0.78100
C312        C  0.75907018  0.75454097  0.27285344     0.82700
N313        N  0.73382781  0.75533367  0.24096496    -0.79800
N314        N  0.75602347  0.87278765  0.40948765    -0.03500
C315        C  0.73203634  0.86575521  0.44163723    -0.00900
C316        C  0.75399331  0.85871162  0.47614298    -0.23800
C317        C  0.79188067  0.86656879  0.46642914    -0.24000
C318        C  0.79174339  0.88009035  0.42700901    -0.01000
H319        H  0.74363004  0.85532761  0.50684361     0.12800
H320        H  0.81508848  0.87151158  0.48858021     0.12800
N321        N  0.92705260  0.59125361  0.25639876    -0.03500
C322        C  0.96324739  0.60612569  0.24641451    -0.00900
C323        C  0.98638485  0.61160862  0.28078386    -0.23800
C324        C  0.96720029  0.59294442  0.31139811    -0.24000
C325        C  0.93229995  0.57832800  0.29514821    -0.01000
H326        H  0.01662006  0.62132515  0.28180828     0.12800
H327        H  0.97997528  0.58495709  0.34023883     0.12800
N328        N  0.60721512  0.76498396  0.10246846    -0.03500
C329        C  0.57098258  0.74772396  0.10765184    -0.00900
C330        C  0.54605218  0.77707752  0.12382822    -0.23800
C331        C  0.56553464  0.81386485  0.12361887    -0.24000
C332        C  0.60099211  0.80660767  0.10534182    -0.01000
H333        H  0.51539779  0.77414249  0.13017779     0.12800
H334        H  0.55151905  0.84345597  0.12697894     0.12800
C335        C  0.22073787  0.74032672  0.26520905     0.80200
N336        N  0.24607124  0.77288621  0.26950903    -0.78100
C337        C  0.27610167  0.77819683  0.24304619     0.82600
N338        N  0.28081905  0.74955857  0.21205857    -0.78100
C339        C  0.25649010  0.71591134  0.20776006     0.82700
N340        N  0.22675841  0.71165513  0.23463870    -0.79800
N341        N  0.37274736  0.92807253  0.24939566    -0.03500
C342        C  0.38409596  0.94579890  0.28583169    -0.00900
C343        C  0.36220286  0.98015693  0.29463551    -0.23800
C344        C  0.34255687  0.98863819  0.25977600    -0.24000
C345        C  0.35380589  0.95919123  0.23073156    -0.01000
H346        H  0.36643432  0.00147502  0.32027992     0.12800
H347        H  0.32642374  0.01645771  0.25574565     0.12800
N348        N  0.08213100  0.73245517  0.36659935    -0.03500
C349        C  0.07228875  0.69314996  0.37589436    -0.00900
C350        C  0.03655018  0.68217233  0.35916838    -0.23800
C351        C  0.02157435  0.71703325  0.34346618    -0.24000
C352        C  0.04804947  0.74862370  0.35266730    -0.01000
H353        H  0.02003742  0.65437513  0.36483872     0.12800
H354        H  0.99127332  0.72061846  0.33526284     0.12800
N355        N  0.27307036  0.60563188  0.06471622    -0.03500
C356        C  0.31075765  0.59696318  0.05443702    -0.00900
C357        C  0.31775969  0.60737591  0.01471634    -0.23800
C358        C  0.28292486  0.61769382  0.99822712    -0.24000
C359        C  0.25528352  0.61345178  0.02830884    -0.01000
H360        H  0.34374417  0.60062115  0.99740967     0.12800
H361        H  0.27756238  0.62155615  0.96611232     0.12800
O362        O  0.99427570  0.93451731  0.54933921    -0.80200
O363        O  0.01215894  0.04273598  0.55833498    -0.80200
O364        O  0.09750802  0.94974276  0.51116962    -0.80200
O365        O  0.93970382  0.00001314  0.53733515    -0.80200
O366        O  0.07547411  0.99322435  0.55814709    -0.80300
O367        O  0.91720184  0.93841082  0.52122532    -0.80200
O368        O  0.97258780  0.07230058  0.51818938    -0.80200
O369        O  0.03355129  0.89828228  0.51025944    -0.80200
C370        C  0.01159984  0.90127840  0.54181457     1.09500
C371        C  0.99362569  0.07426026  0.55023054     1.09400
C372        C  0.09855267  0.96475269  0.54731491     1.09500
C373        C  0.91239466  0.97304029  0.53976960     1.09400
O374        O  0.94072866  0.96981744  0.44855819    -0.80200
O375        O  0.09794222  0.02514292  0.48211504    -0.80300
O376        O  0.01444227  0.93097219  0.42889176    -0.80200
O377        O  0.99218817  0.03947026  0.43774106    -0.80200
O378        O  0.03313754  0.07456119  0.47752160    -0.80200
O379        O  0.97452228  0.89999611  0.46780494    -0.80200
O380        O  0.91550473  0.02954710  0.46467471    -0.80100
O381        O  0.07784495  0.98228682  0.43322424    -0.80200
Co382      Co  0.96850746  0.95437672  0.50119065     1.51500
Co383      Co  0.05258354  0.03155049  0.51841799     1.51700
Co384      Co  0.05367538  0.94265571  0.47119728     1.51600
Co385      Co  0.96737734  0.01718177  0.48537961     1.51500
O386        O  0.01821066  0.98681313  0.49360740    -1.42100
C387        C  0.91241359  0.99477374  0.44567773     1.09400
C388        C  0.10021776  0.01143300  0.44577792     1.09500
C389        C  0.99461793  0.89930105  0.43532800     1.09500
C390        C  0.00938263  0.07298986  0.44694114     1.09400
C391        C  0.03375815  0.86275382  0.38167159    -0.26400
C392        C  0.00275780  0.86120619  0.40975130    -0.14400
C393        C  0.98403756  0.82277519  0.41479378     0.36200
C394        C  0.99913594  0.78709578  0.39579550    -0.25800
C395        C  0.03215550  0.78829447  0.37026930    -0.15000
C396        C  0.04833205  0.82720793  0.36203751     0.37300
N397        N  0.07919062  0.83191396  0.33352291    -0.89300
H398        H  0.04801209  0.89185589  0.37569681     0.18400
H399        H  0.98507287  0.75792053  0.40183824     0.18400
N400        N  0.94953071  0.81879203  0.43852081    -0.88300
H401        H  0.10383018  0.81749236  0.34468017     0.16800
H402        H  0.07089106  0.81751380  0.30594708     0.40900
H403        H  0.92857688  0.83854333  0.42719367     0.40500
H404        H  0.95583826  0.82767551  0.46858725     0.35400
C405        C  0.27012746  0.70227136  0.13370008    -0.26400
C406        C  0.25979800  0.68658882  0.17138535    -0.14400
C407        C  0.25216119  0.64366961  0.17309111     0.36200
C408        C  0.25647572  0.61753797  0.13789736    -0.25800
C409        C  0.26697252  0.63336672  0.10010635    -0.15000
C410        C  0.27309640  0.67689147  0.09844049     0.37300
N411        N  0.28241210  0.69679508  0.06148258    -0.89300
H412        H  0.27524571  0.73508824  0.13127981     0.18400
H413        H  0.25152690  0.58469441  0.14007201     0.18400
N414        N  0.24083112  0.62624854  0.21070421    -0.88300
H415        H  0.25943374  0.69241995  0.04074514     0.35800
H416        H  0.30797180  0.68455712  0.04956681     0.40900
H417        H  0.26114326  0.60392801  0.21801093     0.40500
H418        H  0.21385289  0.61150811  0.20617441     0.35400
C419        C  0.18495228  0.75602479  0.33130083    -0.26400
C420        C  0.18494484  0.73809988  0.29150488    -0.14400
C421        C  0.15000425  0.71921823  0.27690262     0.36200
C422        C  0.11670656  0.71841691  0.30162866    -0.25800
C423        C  0.11677337  0.73593345  0.34143804    -0.15000
C424        C  0.15146608  0.75460558  0.35628453     0.37300
N425        N  0.15251847  0.77274578  0.39651726    -0.89300
H426        H  0.21118582  0.77090046  0.34330266     0.18400
H427        H  0.09041015  0.70365703  0.28965786     0.18400
N428        N  0.14764972  0.70161577  0.23643538    -0.88300
H429        H  0.16009526  0.80387976  0.39433969     0.35800
H430        H  0.17449210  0.75854474  0.41285405     0.40900
H431        H  0.12560944  0.71650611  0.22079362     0.40500
H432        H  0.13970376  0.67056100  0.23831662     0.35400
C433        C  0.33982953  0.81649076  0.22960648    -0.26400
C434        C  0.30215485  0.81623280  0.24672299    -0.14400
C435        C  0.28985539  0.85280857  0.26714764     0.36200
C436        C  0.31395484  0.88820707  0.26865274    -0.25800
C437        C  0.35106988  0.88899584  0.25059037    -0.15000
C438        C  0.36460692  0.85185240  0.23213582     0.37300
N439        N  0.40303244  0.84897397  0.21542520    -0.89300
H440        H  0.35044421  0.78877102  0.21446581     0.18400
H441        H  0.30305714  0.91591004  0.28354234     0.18400
N442        N  0.25228802  0.85490377  0.28564238    -0.88300
H443        H  0.41799056  0.82692520  0.23170852     0.35800
H444        H  0.41848673  0.87661747  0.22001401     0.40900
H445        H  0.23680990  0.87854068  0.27235245     0.40500
H446        H  0.25620132  0.86268055  0.31652608     0.35400
C447        C  0.84837644  0.91507026  0.39441593    -0.26400
C448        C  0.81577101  0.91794860  0.41963262    -0.14400
C449        C  0.81109608  0.95483624  0.44373585     0.36200
C450        C  0.84097328  0.98474027  0.44601940    -0.25800
C451        C  0.87607221  0.97865764  0.42545590    -0.15000
C452        C  0.87796147  0.94552843  0.39617930     0.37300
N453        N  0.91048167  0.94092119  0.36925299    -0.89300
H454        H  0.85214487  0.88778983  0.37506484     0.18400
H455        H  0.83861262  0.01001644  0.46819380     0.18400
N456        N  0.77774352  0.96153147  0.46885616    -0.88300
H457        H  0.92618099  0.91528311  0.37801544     0.35800
H458        H  0.92904790  0.96662944  0.37146787     0.40900
H459        H  0.77752049  0.94075225  0.49231243     0.40500
H460        H  0.75262409  0.95722809  0.45106299     0.35400
C461        C  0.63558081  0.72353478  0.15844465    -0.26400
C462        C  0.64093500  0.74892187  0.12463750    -0.14400
C463        C  0.67954675  0.76171864  0.11606802     0.36200
C464        C  0.71080334  0.75131893  0.14230020    -0.25800
C465        C  0.70470822  0.72805223  0.17713967    -0.15000
C466        C  0.66652590  0.71358976  0.18453601     0.37300
N467        N  0.65802315  0.68994082  0.21948081    -0.89300
H468        H  0.60667157  0.71301555  0.16629315     0.18400
H469        H  0.73980010  0.76315412  0.13660403     0.18400
N470        N  0.68669916  0.78646872  0.08147186    -0.88300
H471        H  0.66549113  0.70750962  0.24564641     0.35800
H472        H  0.67535416  0.66372240  0.21840107     0.40900
H473        H  0.67924946  0.76868336  0.05542190     0.40500
H474        H  0.71632636  0.79363869  0.07930563     0.35400
C475        C  0.85867753  0.68223076  0.26393007    -0.26400
C476        C  0.82533266  0.66842725  0.24218605    -0.14400
C477        C  0.82633280  0.62819214  0.22400571     0.36200
C478        C  0.86008691  0.60330329  0.22795907    -0.25800
C479        C  0.89330599  0.61761074  0.24991680    -0.15000
C480        C  0.89184782  0.65777463  0.26810350     0.37300
N481        N  0.92393745  0.67390178  0.29189608    -0.89300
H482        H  0.85920127  0.71267667  0.27841305     0.18400
H483        H  0.86005875  0.57245978  0.21442247     0.18400
N484        N  0.79279136  0.61178686  0.20282840    -0.88300
H485        H  0.91406366  0.68081833  0.32131284     0.35800
H486        H  0.93346911  0.70128129  0.27915596     0.40900
H487        H  0.78399130  0.58491709  0.21709561     0.40500
H488        H  0.80104226  0.60360211  0.17317571     0.35400
C489        C  0.76606579  0.82687956  0.30211650    -0.26400
C490        C  0.75615877  0.78525107  0.30750995    -0.14400
C491        C  0.74418440  0.77333763  0.34642745     0.36200
C492        C  0.74307155  0.80252502  0.37887688    -0.25800
C493        C  0.75399094  0.84424441  0.37410350    -0.15000
C494        C  0.76551067  0.85615790  0.33501519     0.37300
N495        N  0.77664429  0.89799203  0.32856549    -0.89300
H496        H  0.77516661  0.83656644  0.27239516     0.18400
H497        H  0.73448759  0.79204955  0.40845537     0.18400
N498        N  0.73267644  0.73171965  0.35383088    -0.88300
H499        H  0.75812711  0.90941728  0.30639077     0.35800
H500        H  0.80486480  0.89813336  0.31687497     0.40900
H501        H  0.75616618  0.71251263  0.34741768     0.40500
H502        H  0.70978630  0.72346338  0.33397553     0.35400
C503        C  0.85178015  0.95516081  0.57901662    -0.26400
C504        C  0.87598993  0.98480028  0.56177236    -0.14400
C505        C  0.86425202  0.02654076  0.56413108     0.36200
C506        C  0.82788988  0.03705851  0.58021020    -0.25800
C507        C  0.80259541  0.00738269  0.59567229    -0.15000
C508        C  0.81608233  0.96620698  0.59720360     0.37300
N509        N  0.79420369  0.93545784  0.61769055    -0.89300
H510        H  0.86068096  0.92332634  0.57867716     0.18400
H511        H  0.81897265  0.06872183  0.57882492     0.18400
N512        N  0.88838135  0.05863539  0.54863401    -0.88300
H513        H  0.81166149  0.92419132  0.64086927     0.35800
H514        H  0.78815077  0.91112438  0.59689313     0.40900
H515        H  0.89412942  0.08014870  0.57232478     0.40500
H516        H  0.87281587  0.07339525  0.52601928     0.35400
C517        C  0.77668760  0.15882454  0.65847549    -0.26400
C518        C  0.76642570  0.15031084  0.69882509    -0.14400
C519        C  0.75412362  0.10988049  0.70736776     0.36200
C520        C  0.75013922  0.07983176  0.67576591    -0.25800
C521        C  0.75816019  0.08887739  0.63508696    -0.15000
C522        C  0.77207270  0.12867344  0.62661149     0.37300
N523        N  0.78065564  0.13884683  0.58560419    -0.89300
H524        H  0.78648960  0.18954425  0.65125899     0.18400
H525        H  0.73928054  0.04944107  0.68280759     0.18400
N526        N  0.74558603  0.09911239  0.74827603    -0.88300
H527        H  0.80979446  0.14841696  0.58456273     0.35800
H528        H  0.76342572  0.16376061  0.57795876     0.40900
H529        H  0.76345093  0.07469548  0.75588162     0.40500
H530        H  0.71669131  0.08873585  0.74914435     0.35400
C531        C  0.62753331  0.21172022  0.82679519    -0.26400
C532        C  0.63232127  0.22615972  0.86745721    -0.14400
C533        C  0.67002107  0.23820618  0.88072340     0.36200
C534        C  0.70165339  0.23596580  0.85354171    -0.25800
C535        C  0.69710921  0.22006734  0.81324677    -0.15000
C536        C  0.65909035  0.20796652  0.80007135     0.37300
N537        N  0.65122527  0.19205295  0.75965327    -0.89300
H538        H  0.59896453  0.20164827  0.81613809     0.18400
H539        H  0.73028830  0.24551133  0.86447512     0.18400
N540        N  0.67696191  0.25222194  0.92185799    -0.88300
H541        H  0.66532524  0.16395227  0.75541871     0.35800
H542        H  0.66175480  0.21304309  0.73882961     0.40900
H543        H  0.66873635  0.22865682  0.94104103     0.40500
H544        H  0.65910483  0.27744360  0.92799244     0.35400
C545        C  0.84717034  0.28513861  0.73115674    -0.26400
C546        C  0.82111900  0.28017418  0.76366515    -0.14400
C547        C  0.82268868  0.30987941  0.79619985     0.36200
C548        C  0.84698590  0.34487696  0.79391673    -0.25800
C549        C  0.87101123  0.35134637  0.76011359    -0.15000
C550        C  0.87190062  0.32013561  0.72921253     0.37300
N551        N  0.89748158  0.32409875  0.69539830    -0.89300
H552        H  0.84758404  0.26246082  0.70627409     0.18400
H553        H  0.84557325  0.36809269  0.81822404     0.18400
N554        N  0.79935125  0.30519009  0.83171770    -0.88300
H555        H  0.88068937  0.32314375  0.66875123     0.35800
H556        H  0.91584023  0.29866428  0.69445513     0.40900
H557        H  0.78140422  0.33083370  0.83485965     0.40500
H558        H  0.81789499  0.30498292  0.85704508     0.35400
C559        C  0.34846063  0.25513831  0.17930447    -0.26400
C560        C  0.31058809  0.27026050  0.17284862    -0.14400
C561        C  0.30242502  0.28745999  0.13474457     0.36200
C562        C  0.33134339  0.28896252  0.10464643    -0.25800
C563        C  0.36911172  0.27398309  0.11114743    -0.15000
C564        C  0.37753881  0.25714185  0.14919794     0.37300
N565        N  0.41541650  0.24191683  0.15805616    -0.89300
H566        H  0.35574583  0.24189830  0.20814394     0.18400
H567        H  0.32428825  0.30228061  0.07578814     0.18400
N568        N  0.26457325  0.30293571  0.12588508    -0.88300
H569        H  0.43572761  0.26563232  0.15391553     0.35800
H570        H  0.42125032  0.21788905  0.13720266     0.40900
H571        H  0.25356403  0.28678350  0.10019137     0.40500
H572        H  0.26760976  0.33392024  0.11871628     0.35400
C573        C  0.14604559  0.28591387  0.23004903    -0.26400
C574        C  0.18104402  0.30851414  0.22968588    -0.14400
C575        C  0.17911176  0.35190098  0.22900893     0.36200
C576        C  0.14255019  0.37168919  0.23047608    -0.25800
C577        C  0.10736132  0.34903790  0.23177963    -0.15000
C578        C  0.10972243  0.30518852  0.23091110     0.37300
N579        N  0.07600921  0.27899050  0.23272332    -0.89300
H580        H  0.14690004  0.25257848  0.23042716     0.18400
H581        H  0.14163736  0.40501931  0.23211285     0.18400
N582        N  0.21420731  0.37608523  0.22885030    -0.88300
H583        H  0.05828547  0.28366456  0.20747518     0.35800
H584        H  0.06091454  0.28597143  0.25950745     0.40900
H585        H  0.21441078  0.39565938  0.25473775     0.40500
H586        H  0.21349028  0.39437595  0.20329252     0.35400
C587        C  0.15485243  0.06118980  0.43762067    -0.26400
C588        C  0.13149744  0.02931614  0.42001080    -0.14400
C589        C  0.14049176  0.01489436  0.38012517     0.36200
C590        C  0.17330114  0.03075790  0.36040049    -0.25800
C591        C  0.19890240  0.05955137  0.37989349    -0.15000
C592        C  0.18843928  0.07566830  0.41894982     0.37300
N593        N  0.21221168  0.10431402  0.44242712    -0.89300
H594        H  0.14847011  0.07370297  0.46776400     0.18400
H595        H  0.18021957  0.01838538  0.33034844     0.18400
N596        N  0.11796405  0.98330826  0.35924422    -0.88300
H597        H  0.21616035  0.13137116  0.42697426     0.35800
H598        H  0.23904763  0.09102113  0.44845081     0.40900
H599        H  0.08918901  0.99303976  0.35713555     0.40500
H600        H  0.11900058  0.95649370  0.37594101     0.35400
C601        C  0.22963845  0.15541103  0.34595403    -0.26400
C602        C  0.26398374  0.13252746  0.34948194    -0.14400
C603        C  0.29502438  0.14244217  0.32271953     0.36200
C604        C  0.29145655  0.17517317  0.29566378    -0.25800
C605        C  0.25713923  0.19811694  0.29267478    -0.15000
C606        C  0.22582025  0.18738732  0.31826359     0.37300
N607        N  0.18920982  0.20770802  0.31550947    -0.89300
H608        H  0.20439665  0.14719543  0.36344945     0.18400
H609        H  0.31570771  0.18179638  0.27594093     0.18400
N610        N  0.32941767  0.11806179  0.32054020    -0.88300
H611        H  0.18272236  0.22059117  0.34419041     0.35800
H612        H  0.16780288  0.18556486  0.30793624     0.40900
H613        H  0.35355968  0.13767954  0.32463460     0.40500
H614        H  0.33101576  0.10471783  0.29121717     0.35400
C615        C  0.99231481  0.45340683  0.83606045    -0.26400
C616        C  0.98982432  0.43459125  0.87378641    -0.14400
C617        C  0.96302848  0.40115571  0.87747644     0.36200
C618        C  0.93488748  0.39269224  0.84704692    -0.25800
C619        C  0.93393871  0.41567087  0.81202792    -0.15000
C620        C  0.96494331  0.44357024  0.80491928     0.37300
N621        N  0.96769751  0.46288916  0.76647685    -0.89300
H622        H  0.01353210  0.47778977  0.83171532     0.18400
H623        H  0.91215621  0.37010692  0.85225395     0.18400
N624        N  0.96251359  0.37739460  0.91343108    -0.88300
H625        H  0.96591479  0.49475866  0.77108014     0.35800
H626        H  0.99505847  0.45645788  0.75441758     0.40900
H627        H  0.96628624  0.34647290  0.90469568     0.40500
H628        H  0.93508527  0.38017537  0.92674478     0.35400
C629        C  0.97278583  0.61761595  0.17214913    -0.26400
C630        C  0.98245431  0.59584272  0.20668364    -0.14400
C631        C  0.01130357  0.56478988  0.20286307     0.36200
C632        C  0.02708834  0.55430226  0.16485461    -0.25800
C633        C  0.01618115  0.57473035  0.12990029    -0.15000
C634        C  0.98981550  0.60800667  0.13415860     0.37300
N635        N  0.97952096  0.63177816  0.09986346    -0.89300
H636        H  0.95188577  0.64225886  0.17461029     0.18400
H637        H  0.04720896  0.52892047  0.16258679     0.18400
N638        N  0.02466019  0.54219911  0.23668038    -0.88300
H639        H  0.98676100  0.66260493  0.10673270     0.35800
H640        H  0.94936864  0.62960676  0.09570785     0.40900
H641        H  0.00048440  0.53017770  0.25190316     0.40500
H642        H  0.04079498  0.56138131  0.25627418     0.35400
C643        C  0.02899986  0.39259219  0.11388597    -0.26400
C644        C  0.00112872  0.42428637  0.11681486    -0.14400
C645        C  0.98091951  0.42940812  0.15402681     0.36200
C646        C  0.99083575  0.40548822  0.18715220    -0.25800
C647        C  0.02187586  0.37740739  0.18546411    -0.15000
C648        C  0.03943336  0.36942021  0.14771599     0.37300
N649        N  0.06728518  0.33725194  0.14333300    -0.89300
H650        H  0.04410935  0.38661678  0.08554571     0.18400
H651        H  0.97500477  0.41059452  0.21516980     0.18400
N652        N  0.95062915  0.45889716  0.15974214    -0.88300
H653        H  0.09316047  0.35000299  0.13260067     0.35800
H654        H  0.05671836  0.31591269  0.12129700     0.40900
H655        H  0.92958937  0.45390681  0.13697248     0.40500
H656        H  0.96243644  0.48859690  0.15797503     0.35400
C657        C  0.20899428  0.57512216  0.98103800    -0.26400
C658        C  0.21445585  0.60016087  0.01663571    -0.14400
C659        C  0.18121468  0.61172547  0.03885936     0.36200
C660        C  0.14409978  0.59669406  0.02641886    -0.25800
C661        C  0.13904110  0.57064393  0.99151923    -0.15000
C662        C  0.17204596  0.56065358  0.96813861     0.37300
N663        N  0.16840004  0.53432314  0.93231526    -0.89300
H664        H  0.23398635  0.56535802  0.96355449     0.18400
H665        H  0.11908308  0.60502091  0.04465402     0.18400
N666        N  0.18466207  0.63916352  0.07363035    -0.88300
H667        H  0.19498285  0.53182999  0.91725615     0.35800
H668        H  0.16125582  0.50492017  0.94194346     0.40900
H669        H  0.17299024  0.62436925  0.09862356     0.40500
H670        H  0.16784081  0.66505793  0.06832389     0.35400
C671        C  0.88325447  0.39258369  0.04119990    -0.26400
C672        C  0.88052980  0.43565570  0.04565382    -0.14400
C673        C  0.84967625  0.45225470  0.06897884     0.36200
C674        C  0.82242716  0.42602361  0.08671379    -0.25800
C675        C  0.82294432  0.38336368  0.07912344    -0.15000
C676        C  0.85478573  0.36640831  0.05740204     0.37300
N677        N  0.85939908  0.32280218  0.05205141    -0.89300
H678        H  0.90734128  0.37913678  0.02458961     0.18400
H679        H  0.79910278  0.43960738  0.10421049     0.18400
N680        N  0.84433297  0.49588820  0.07284509    -0.88300
H681        H  0.85976138  0.30995055  0.08079871     0.35800
H682        H  0.83583889  0.31028475  0.03557982     0.40900
H683        H  0.84431857  0.50430973  0.10378072     0.40500
H684        H  0.81701829  0.50264508  0.06068040     0.35400
C685        C  0.92534422  0.13735396  0.41792347    -0.26400
C686        C  0.93021222  0.16921991  0.44729331    -0.14400
C687        C  0.96746706  0.17630727  0.46434173     0.36200
C688        C  0.99731916  0.14784303  0.45740523    -0.25800
C689        C  0.99048798  0.11177060  0.43355249    -0.15000
C690        C  0.95585011  0.10978902  0.40933212     0.37300
N691        N  0.95026532  0.07945742  0.37697555    -0.89300
H692        H  0.89739314  0.13277061  0.40290010     0.18400
H693        H  0.02402145  0.15155475  0.47492027     0.18400
N694        N  0.97397361  0.21091567  0.49154207    -0.88300
H695        H  0.92934319  0.05806574  0.38614354     0.35800
H696        H  0.97601518  0.06393865  0.37061903     0.40900
H697        H  0.99594883  0.22888777  0.47914936     0.40500
H698        H  0.98340181  0.19998270  0.51948592     0.35400
C699        C  0.68051335  0.15418102  0.29932532    -0.26400
C700        C  0.68143818  0.19623393  0.28966749    -0.14400
C701        C  0.64631272  0.21434257  0.27697106     0.36200
C702        C  0.61197944  0.19026617  0.27310171    -0.25800
C703        C  0.61113080  0.14798777  0.28152427    -0.15000
C704        C  0.64603872  0.12998546  0.29478124     0.37300
N705        N  0.64728481  0.08708809  0.30319907    -0.89300
H706        H  0.70706565  0.13962280  0.30894061     0.18400
H707        H  0.58561235  0.20446166  0.26251858     0.18400
N708        N  0.64554173  0.25734276  0.26791644    -0.88300
H709        H  0.63923166  0.07031619  0.27667637     0.35800
H710        H  0.62664869  0.08106353  0.32544215     0.40900
H711        H  0.65164695  0.27414535  0.29489061     0.40500
H712        H  0.61770092  0.26585987  0.25856579     0.35400
C713        C  0.74242086  0.33556126  0.22429652    -0.26400
C714        C  0.76523772  0.30012234  0.22632903    -0.14400
C715        C  0.79062238  0.29075854  0.19390362     0.36200
C716        C  0.79122778  0.31543615  0.15956821    -0.25800
C717        C  0.76641244  0.34969037  0.15593661    -0.15000
C718        C  0.74312137  0.36048671  0.18986486     0.37300
N719        N  0.71955634  0.39641585  0.18929535    -0.89300
H720        H  0.72307758  0.34337791  0.24918573     0.18400
H721        H  0.80967267  0.30592447  0.13455793     0.18400
N722        N  0.81453021  0.25495921  0.19401496    -0.88300
H723        H  0.72792927  0.41579252  0.21391106     0.35800
H724        H  0.69065369  0.38731060  0.19375477     0.40900
H725        H  0.79649791  0.22900566  0.19657368     0.40500
H726        H  0.83278013  0.25715510  0.21956397     0.35400
C727        C  0.79447013  0.22667252  0.39421136    -0.26400
C728        C  0.80789494  0.23937228  0.35631390    -0.14400
C729        C  0.84780460  0.25061889  0.35328612     0.36200
C730        C  0.87297203  0.24860011  0.38748432    -0.25800
C731        C  0.85942554  0.23578650  0.42525953    -0.15000
C732        C  0.81927322  0.22471659  0.42822303     0.37300
N733        N  0.80261089  0.21048741  0.46508390    -0.89300
H734        H  0.76413754  0.21805495  0.39766455     0.18400
H735        H  0.90353022  0.25633027  0.38432037     0.18400
N736        N  0.86339762  0.26284176  0.31521716    -0.88300
H737        H  0.80609303  0.23328857  0.48797783     0.35800
H738        H  0.81653722  0.18363718  0.47339395     0.40900
H739        H  0.88570012  0.24261749  0.30717033     0.40500
H740        H  0.87562811  0.29231618  0.31941417     0.35400
C741        C  0.05318738  0.60573323  0.89714942    -0.26400
C742        C  0.01640631  0.58675593  0.88944599    -0.14400
C743        C  0.00633652  0.57681437  0.84889419     0.36200
C744        C  0.03567791  0.57566170  0.81921186    -0.25800
C745        C  0.07482280  0.58467908  0.82989671    -0.15000
C746        C  0.08297135  0.60274206  0.86843729     0.37300
N747        N  0.12179327  0.61431940  0.88056348    -0.89300
H748        H  0.06110256  0.61653313  0.92766235     0.18400
H749        H  0.02867012  0.56331524  0.78898145     0.18400
N750        N  0.96709762  0.56548615  0.83848815    -0.88300
H751        H  0.13218491  0.63598648  0.86037571     0.35800
H752        H  0.13929547  0.58831370  0.87812101     0.40900
H753        H  0.96676366  0.53514437  0.82711082     0.40500
H754        H  0.95775771  0.58444356  0.81543265     0.35400
C755        C  0.18122218  0.96342688  0.62539036    -0.26400
C756        C  0.20125857  0.92780765  0.61215033    -0.14400
C757        C  0.18206815  0.90043231  0.58397174     0.36200
C758        C  0.14673850  0.91165947  0.56617378    -0.25800
C759        C  0.12957938  0.94994486  0.57523124    -0.15000
C760        C  0.14593218  0.97488455  0.60701729     0.37300
N761        N  0.12861022  0.01331639  0.61866169    -0.89300
H762        H  0.19502448  0.98469967  0.64728528     0.18400
H763        H  0.13392179  0.89121672  0.54290394     0.18400
N764        N  0.19869598  0.86229312  0.57045968    -0.88300
H765        H  0.14898199  0.03685894  0.61406878     0.35800
H766        H  0.12261040  0.01289792  0.64977295     0.40900
H767        H  0.20255481  0.84408610  0.59571476     0.40500
H768        H  0.22547774  0.86810736  0.55697270     0.35400
C769        C  0.13951652  0.65363129  0.76103978    -0.26400
C770        C  0.14992265  0.61465897  0.77436345    -0.14400
C771        C  0.18911395  0.60821325  0.78599378     0.36200
C772        C  0.21671377  0.64004483  0.78329438    -0.25800
C773        C  0.20687755  0.67868603  0.76851988    -0.15000
C774        C  0.16747068  0.68544126  0.75758927     0.37300
N775        N  0.15470354  0.72440589  0.74382831    -0.89300
H776        H  0.10958295  0.65923003  0.75267820     0.18400
H777        H  0.24649495  0.63412218  0.79220022     0.18400
N778        N  0.20189795  0.56946512  0.80044028    -0.88300
H779        H  0.16875903  0.73059572  0.71662754     0.35800
H780        H  0.16246419  0.74716349  0.76575596     0.40900
H781        H  0.19768724  0.54675683  0.77750580     0.40500
H782        H  0.18536748  0.56189568  0.82566758     0.35400
C783        C  0.27047859  0.82039847  0.63377788    -0.26400
C784        C  0.26643049  0.86190824  0.64614420    -0.14400
C785        C  0.26513821  0.87190159  0.68832296     0.36200
C786        C  0.26662329  0.84063711  0.71693104    -0.25800
C787        C  0.26938572  0.79907154  0.70458911    -0.15000
C788        C  0.27141814  0.78900779  0.66236154     0.37300
N789        N  0.27575399  0.74733436  0.64773297    -0.89300
H790        H  0.27295369  0.81242407  0.60166376     0.18400
H791        H  0.26541942  0.84895304  0.74908560     0.18400
N792        N  0.26367438  0.91403926  0.70233978    -0.88300
H793        H  0.25164909  0.73012668  0.65688350     0.35800
H794        H  0.30070333  0.73543957  0.66110876     0.40900
H795        H  0.28801671  0.92022066  0.72088144     0.40500
H796        H  0.23880637  0.91768542  0.72018999     0.35400
C797        C  0.31412165  0.72149160  0.86753726    -0.26400
C798        C  0.32449326  0.74147300  0.83186777    -0.14400
C799        C  0.36236069  0.75904413  0.83003202     0.36200
C800        C  0.38886642  0.75532699  0.86304468    -0.25800
C801        C  0.37827919  0.73501371  0.89859478    -0.15000
C802        C  0.33991479  0.71797962  0.90030017     0.37300
N803        N  0.32591495  0.69620837  0.93453442    -0.89300
H804        H  0.28531440  0.70794389  0.87025298     0.18400
H805        H  0.41787497  0.76847534  0.86097828     0.18400
N806        N  0.37444283  0.77993011  0.79452584    -0.88300
H807        H  0.32650429  0.71571277  0.96033928     0.35800
H808        H  0.34313667  0.67043809  0.93886712     0.40900
H809        H  0.39899841  0.76515498  0.78286931     0.40500
H810        H  0.38258765  0.81003889  0.80341772     0.35400
C811        C  0.61120708  0.90794631  0.05406467    -0.26400
C812        C  0.58716614  0.90040362  0.01953639    -0.14400
C813        C  0.57894211  0.85878853  0.00805262     0.36200
C814        C  0.59022505  0.82680788  0.03364989    -0.25800
C815        C  0.60888549  0.83528771  0.07136652    -0.15000
C816        C  0.62176628  0.87623104  0.08010343     0.37300
N817        N  0.64265330  0.88727132  0.11697402    -0.89300
H818        H  0.61886340  0.93935886  0.06330279     0.18400
H819        H  0.58001655  0.79571372  0.02632775     0.18400
N820        N  0.55647260  0.84885303  0.97214495    -0.88300
H821        H  0.66936380  0.90011169  0.10865279     0.35800
H822        H  0.64931159  0.86114372  0.13322365     0.40900
H823        H  0.53124787  0.83312092  0.98069919     0.40500
H824        H  0.57270854  0.82885599  0.95362447     0.35400
C825        C  0.41704797  0.86347273  0.97478707    -0.26400
C826        C  0.44525638  0.86778287  0.00626513    -0.14400
C827        C  0.45562814  0.83259501  0.02726344     0.36200
C828        C  0.43885474  0.79420779  0.01581428    -0.25800
C829        C  0.41188325  0.78965212  0.98312462    -0.15000
C830        C  0.40058505  0.82509793  0.96309630     0.37300
N831        N  0.37205130  0.82262099  0.93118606    -0.89300
H832        H  0.40805303  0.89000066  0.95813329     0.18400
H833        H  0.44815274  0.76764477  0.03214667     0.18400
N834        N  0.48353477  0.83533825  0.05977475    -0.88300
H835        H  0.38446353  0.83469368  0.90512151     0.35800
H836        H  0.34879358  0.84138197  0.93970844     0.40900
H837        H  0.50631831  0.81550803  0.05244174     0.40500
H838        H  0.47019211  0.82472651  0.08599294     0.35400
C839        C  0.54662773  0.00829385  0.19061757    -0.26400
C840        C  0.56385099  0.01159570  0.15238846    -0.14400
C841        C  0.59301042  0.04201590  0.14749448     0.36200
C842        C  0.59923045  0.07300948  0.17786114    -0.25800
C843        C  0.57714419  0.07363477  0.21349932    -0.15000
C844        C  0.55321467  0.03883399  0.22125868     0.37300
N845        N  0.53192849  0.03602290  0.25828260    -0.89300
H846        H  0.52411963  0.98519678  0.19494089     0.18400
H847        H  0.61806510  0.09899664  0.17152268     0.18400
N848        N  0.61317943  0.04410695  0.10963363    -0.88300
H849        H  0.51238914  0.06025086  0.26021085     0.35800
H850        H  0.55162634  0.03896791  0.28262546     0.40900
H851        H  0.64299646  0.04231175  0.11575743     0.40500
H852        H  0.60799123  0.07287432  0.09752299     0.35400
C853        C  0.38656260  0.01800748  0.13759632    -0.26400
C854        C  0.40471515  0.98626474  0.11544472    -0.14400
C855        C  0.39690623  0.94520645  0.12591451     0.36200
C856        C  0.37551867  0.93716165  0.16109312    -0.25800
C857        C  0.36266245  0.96919380  0.18725666    -0.15000
C858        C  0.36597263  0.01018321  0.17331298     0.37300
N859        N  0.35074596  0.04465278  0.19589326    -0.89300
H860        H  0.39127530  0.04972232  0.12939927     0.18400
H861        H  0.37132382  0.90552291  0.16921004     0.18400
N862        N  0.41210893  0.91152148  0.10200009    -0.88300
H863        H  0.33145753  0.05998623  0.17706485     0.35800
H864        H  0.37376807  0.06482430  0.20364384     0.40900
H865        H  0.38879535  0.89274113  0.09208712     0.40500
H866        H  0.42986167  0.89423196  0.12077781     0.35400
C867        C  0.44634363  0.20996361  0.05043903    -0.26400
C868        C  0.41126903  0.21928579  0.03100237    -0.14400
C869        C  0.39924782  0.19458343  0.99689436     0.36200
C870        C  0.42262250  0.16179504  0.98279383    -0.25800
C871        C  0.45819696  0.15332729  0.00186104    -0.15000
C872        C  0.46961324  0.17754210  0.03630338     0.37300
N873        N  0.50404267  0.16800796  0.05853158    -0.89300
H874        H  0.45632728  0.22822272  0.07664738     0.18400
H875        H  0.41203688  0.14164099  0.95809692     0.18400
N876        N  0.36279034  0.20192571  0.97727034    -0.88300
H877        H  0.49597417  0.16089787  0.08811146     0.35800
H878        H  0.52144602  0.19465356  0.06042760     0.40900
H879        H  0.34572088  0.17513793  0.97862458     0.40500
H880        H  0.36822809  0.20731117  0.94664541     0.35400
C881        C  0.59012753  0.14925663  0.01334840    -0.26400
C882        C  0.59849633  0.10767860  0.00532644    -0.14400
C883        C  0.62228764  0.09835192  0.97151206     0.36200
C884        C  0.62548346  0.12679734  0.94008083    -0.25800
C885        C  0.60738178  0.16521985  0.94378722    -0.15000
C886        C  0.59352092  0.17799779  0.98257905     0.37300
N887        N  0.57907005  0.21864602  0.99021375    -0.89300
H888        H  0.57599042  0.15816156  0.04138257     0.18400
H889        H  0.63955790  0.11801307  0.91185674     0.18400
N890        N  0.64090569  0.05918607  0.96827287    -0.88300
H891        H  0.55527651  0.22319430  0.97112529     0.35800
H892        H  0.60105332  0.23979620  0.98320411     0.40900
H893        H  0.67059776  0.06434808  0.96381761     0.40500
H894        H  0.62983561  0.04260838  0.94299581     0.35400
C895        C  0.98162411  0.13237141  0.60046762    -0.26400
C896        C  0.00566193  0.11371971  0.57132167    -0.14400
C897        C  0.04437013  0.12874423  0.56796816     0.36200
C898        C  0.05656940  0.16463993  0.58968474    -0.25800
C899        C  0.03198644  0.18491437  0.61741087    -0.15000
C900        C  0.99497939  0.16612018  0.62503285     0.37300
N901        N  0.97146967  0.17811529  0.65923951    -0.89300
H902        H  0.95319116  0.11900936  0.60607285     0.18400
H903        H  0.08537259  0.17703397  0.58405485     0.18400
N904        N  0.07183929  0.10743638  0.54275303    -0.88300
H905        H  0.94654923  0.19244124  0.64842906     0.35800
H906        H  0.98644479  0.19825237  0.67937349     0.40900
H907        H  0.09512906  0.09877142  0.56109237     0.40500
H908        H  0.08252918  0.12789796  0.52150221     0.35400
C909        C  0.37844449  0.02762151  0.82649114    -0.26400
C910        C  0.39300868  0.06221171  0.80630545    -0.14400
C911        C  0.41795465  0.08973308  0.82811094     0.36200
C912        C  0.43160855  0.07969636  0.86694324    -0.25800
C913        C  0.42177516  0.04186610  0.88463397    -0.15000
C914        C  0.39251592  0.01709827  0.86505675     0.37300
N915        N  0.37742186  0.98045502  0.88256809    -0.89300
H916        H  0.35824363  0.00665166  0.81072517     0.18400
H917        H  0.45281277  0.10032466  0.88162125     0.18400
N918        N  0.43229371  0.12620984  0.80969441    -0.88300
H919        H  0.36746359  0.98799936  0.91182858     0.35800
H920        H  0.39957071  0.95890165  0.88441997     0.40900
H921        H  0.46264467  0.12477705  0.80853631     0.40500
H922        H  0.42492308  0.15150927  0.82841270     0.35400
C923        C  0.19603267  0.40645787  0.98280603    -0.26400
C924        C  0.20005638  0.41259429  0.94068248    -0.14400
C925        C  0.16610092  0.42006014  0.91794911     0.36200
C926        C  0.13077595  0.42668306  0.93810851    -0.25800
C927        C  0.12885470  0.42933900  0.98109690    -0.15000
C928        C  0.16143080  0.41677831  0.00338596     0.37300
N929        N  0.16057200  0.41724167  0.04689795    -0.89300
H930        H  0.22182589  0.40078074  0.00084218     0.18400
H931        H  0.10599167  0.43525553  0.91984455     0.18400
N932        N  0.16753133  0.42663646  0.87511311    -0.88300
H933        H  0.16721650  0.38768783  0.05627445     0.35800
H934        H  0.18246214  0.43742605  0.05783837     0.40900
H935        H  0.18655892  0.45122486  0.86978246     0.40500
H936        H  0.17822831  0.40002722  0.86072795     0.35400
C937        C  0.14504527  0.25237929  0.71481185    -0.26400
C938        C  0.18186924  0.24807457  0.69709643    -0.14400
C939        C  0.18342251  0.24076112  0.65446492     0.36200
C940        C  0.14870334  0.23901146  0.63061468    -0.25800
C941        C  0.11171692  0.24353423  0.64834989    -0.15000
C942        C  0.11046915  0.25001892  0.69150291     0.37300
N943        N  0.07467900  0.25576895  0.71283026    -0.89300
H944        H  0.14301976  0.25787863  0.74741244     0.18400
H945        H  0.15068894  0.23507485  0.59786353     0.18400
N946        N  0.22034754  0.23695100  0.63494057    -0.88300
H947        H  0.05738441  0.22921425  0.70891337     0.35800
H948        H  0.06036055  0.28101605  0.70125667     0.40900
H949        H  0.22266403  0.26007037  0.61367425     0.40500
H950        H  0.22075465  0.20849634  0.61916864     0.35400
C951        C  0.32773668  0.12337342  0.75493282    -0.26400
C952        C  0.36614323  0.13109018  0.74197114    -0.14400
C953        C  0.37604718  0.17171894  0.73152897     0.36200
C954        C  0.34768160  0.20314105  0.73347699    -0.25800
C955        C  0.30905627  0.19477011  0.74524651    -0.15000
C956        C  0.29952209  0.15429328  0.75652166     0.37300
N957        N  0.26133391  0.14373175  0.77027286    -0.89300
H958        H  0.31911189  0.09254869  0.76303182     0.18400
H959        H  0.35575973  0.23407608  0.72516721     0.18400
N960        N  0.41491465  0.18135066  0.71942274    -0.88300
H961        H  0.24138571  0.14895414  0.74695366     0.35800
H962        H  0.25471733  0.16302695  0.79528588     0.40900
H963        H  0.42600451  0.20433277  0.73942364     0.40500
H964        H  0.41367450  0.19337294  0.69033550     0.35400
C965        C  0.26366602  0.31616744  0.84990158    -0.26400
C966        C  0.25529568  0.32322232  0.80871452    -0.14400
C967        C  0.24994331  0.36435058  0.79736586     0.36200
C968        C  0.25343594  0.39721064  0.82661988    -0.25800
C969        C  0.26052506  0.39013395  0.86799182    -0.15000
C970        C  0.26552708  0.34879711  0.87949714     0.37300
N971        N  0.27325487  0.33903899  0.92088003    -0.89300
H972        H  0.26788283  0.28489942  0.85938479     0.18400
H973        H  0.24952791  0.42851857  0.81715186     0.18400
N974        N  0.24150707  0.37300092  0.75584434    -0.88300
H975        H  0.24952523  0.34792949  0.93856276     0.35800
H976        H  0.29772438  0.35592300  0.93104468     0.40900
H977        H  0.26326131  0.39276997  0.74550497     0.40500
H978        H  0.21507164  0.38853540  0.75497894     0.35400
C979        C  0.83734388  0.62065702  0.92409363    -0.26400
C980        C  0.82237621  0.64836967  0.95339655    -0.14400
C981        C  0.84435939  0.65601963  0.98959220     0.36200
C982        C  0.87692645  0.63165129  0.99812270    -0.25800
C983        C  0.88839066  0.59979740  0.97107850    -0.15000
C984        C  0.86942093  0.59619275  0.93248821     0.37300
N985        N  0.88136260  0.56753984  0.90111736    -0.89300
H986        H  0.82209597  0.61501735  0.89551676     0.18400
H987        H  0.89176857  0.63613759  0.02714255     0.18400
N988        N  0.83328701  0.68773290  0.01833189    -0.88300
H989        H  0.87597472  0.53747274  0.91003485     0.35800
H990        H  0.91103282  0.57196870  0.89605469     0.40900
H991        H  0.85671580  0.70838852  0.02203626     0.40500
H992        H  0.82850995  0.67421349  0.04632785     0.35400
C993        C  0.96640980  0.79702536  0.54622553    -0.26400
C994        C  0.93277620  0.80828719  0.56796835    -0.14400
C995        C  0.93428132  0.84374395  0.59358747     0.36200
C996        C  0.96610148  0.87089489  0.59125154    -0.25800
C997        C  0.99550271  0.86430642  0.56198873    -0.15000
C998        C  0.99790539  0.82488818  0.54315674     0.37300
N999        N  0.03063662  0.81435008  0.51845419    -0.89300
H1000       H  0.96627189  0.76883006  0.52763131     0.18400
H1001       H  0.96479038  0.90001696  0.60820381     0.18400
N1002       N  0.90266063  0.85444942  0.61983864    -0.88300
H1003       H  0.02064561  0.80617457  0.48915195     0.35800
H1004       H  0.04341682  0.78854669  0.53074001     0.40900
H1005       H  0.89909217  0.83093813  0.64045418     0.40500
H1006       H  0.87721717  0.85601057  0.60242350     0.35400
C1007       C  0.76937220  0.65830892  0.84052691    -0.26400
C1008       C  0.76321771  0.67747807  0.87882097    -0.14400
C1009       C  0.75605406  0.72044437  0.88071144     0.36200
C1010       C  0.75550865  0.74281689  0.84513774    -0.25800
C1011       C  0.76186393  0.72394763  0.80682683    -0.15000
C1012       C  0.76898493  0.68113493  0.80463510     0.37300
N1013       N  0.77426507  0.66038880  0.76602294    -0.89300
H1014       H  0.77362051  0.62533146  0.83843613     0.18400
H1015       H  0.74994678  0.77554721  0.84765418     0.18400
N1016       N  0.74802007  0.74223799  0.91821742    -0.88300
H1017       H  0.75275921  0.63745080  0.76262786     0.35800
H1018       H  0.80131080  0.64603009  0.76644194     0.40900
H1019       H  0.77204413  0.74024826  0.93764213     0.40500
H1020       H  0.72367474  0.72889055  0.93159959     0.35400
C1021       C  0.87277707  0.74954849  0.63909516    -0.26400
C1022       C  0.85705865  0.75057486  0.59952595    -0.14400
C1023       C  0.81600341  0.75644751  0.59574946     0.36200
C1024       C  0.79292535  0.76159004  0.63060939    -0.25800
C1025       C  0.80884919  0.76081507  0.66988346    -0.15000
C1026       C  0.84936446  0.75428187  0.67396093     0.37300
N1027       N  0.86792495  0.75435883  0.71308121    -0.89300
H1028       H  0.90389965  0.74617126  0.64283459     0.18400
H1029       H  0.76199340  0.76659426  0.62687223     0.18400
N1030       N  0.79653234  0.75865796  0.55729856    -0.88300
H1031       H  0.85649000  0.73002664  0.72940440     0.35800
H1032       H  0.86167169  0.78209391  0.72859221     0.40900
H1033       H  0.80036879  0.73117308  0.54061078     0.40500
H1034       H  0.80768749  0.78363997  0.54169401     0.35400
C1035       C  0.59113221  0.96774763  0.80880717    -0.26400
C1036       C  0.62547588  0.99067648  0.80243526    -0.14400
C1037       C  0.63505129  0.02347259  0.82999843     0.36200
C1038       C  0.60914128  0.03431739  0.86117619    -0.25800
C1039       C  0.57519097  0.01114418  0.86769242    -0.15000
C1040       C  0.56620594  0.97749696  0.84097164     0.37300
N1041       N  0.53087495  0.95413112  0.84514300    -0.89300
H1042       H  0.58220749  0.94316976  0.78758208     0.18400
H1043       H  0.61591214  0.06081195  0.88047664     0.18400
N1044       N  0.67092148  0.04596741  0.82639236    -0.88300
H1045       H  0.53815682  0.92327739  0.84858255     0.35800
H1046       H  0.51469867  0.95614978  0.81825300     0.40900
H1047       H  0.66442021  0.07705734  0.82320280     0.40500
H1048       H  0.68654426  0.04340318  0.85357300     0.35400
C1049       C  0.65777245  0.89035535  0.77026183    -0.26400
C1050       C  0.65779224  0.91581495  0.73657766    -0.14400
C1051       C  0.68377602  0.90624441  0.70448944     0.36200
C1052       C  0.70796520  0.87167821  0.70625683    -0.25800
C1053       C  0.70777441  0.84562538  0.73964391    -0.15000
C1054       C  0.68197689  0.85577186  0.77227618     0.37300
N1055       N  0.67948447  0.83214978  0.80819101    -0.89300
H1056       H  0.63891229  0.89759326  0.79564734     0.18400
H1057       H  0.72747827  0.86567197  0.68108711     0.18400
N1058       N  0.68700306  0.93238274  0.67047523    -0.88300
H1059       H  0.70666277  0.83244768  0.82263442     0.35800
H1060       H  0.67100494  0.80197792  0.80002447     0.40900
H1061       H  0.68118021  0.91464040  0.64397608     0.40500
H1062       H  0.71574329  0.94316915  0.66930953     0.35400
C1063       C  0.47951269  0.40175475  0.09550216    -0.26400
C1064       C  0.51033878  0.38920049  0.06967500    -0.14400
C1065       C  0.51257859  0.34673827  0.05895461     0.36200
C1066       C  0.48060622  0.32074554  0.06648892    -0.25800
C1067       C  0.44597937  0.33651212  0.08321124    -0.15000
C1068       C  0.44642888  0.37653868  0.10040631     0.37300
N1069       N  0.41170858  0.39287903  0.11852782    -0.89300
H1070       H  0.47818412  0.43351488  0.10649381     0.18400
H1071       H  0.48083358  0.28979896  0.05340405     0.18400
N1072       N  0.54504712  0.32961867  0.03753038    -0.88300
H1073       H  0.41616196  0.42349874  0.12840353     0.35800
H1074       H  0.40587390  0.37604645  0.14440543     0.40900
H1075       H  0.57048162  0.33810575  0.05341620     0.40500
H1076       H  0.54627235  0.34127507  0.00840945     0.35400
C1077       C  0.55782384  0.35684715  0.89888595    -0.26400
C1078       C  0.52428717  0.36165609  0.92333574    -0.14400
C1079       C  0.50371842  0.32544585  0.93362194     0.36200
C1080       C  0.51752209  0.28662081  0.92088986    -0.25800
C1081       C  0.55146400  0.28184608  0.89715236    -0.15000
C1082       C  0.57138508  0.31772635  0.88590107     0.37300
N1083       N  0.60508229  0.31482714  0.86072157    -0.89300
H1084       H  0.57442026  0.38370864  0.89024094     0.18400
H1085       H  0.50146380  0.25975141  0.93042349     0.18400
N1086       N  0.46855085  0.32662925  0.95663075    -0.88300
H1087       H  0.62832438  0.32936638  0.87629710     0.35800
H1088       H  0.59972152  0.33102510  0.83434284     0.40900
H1089       H  0.44831722  0.34416423  0.94123842     0.40500
H1090       H  0.47423070  0.34049981  0.98504475     0.35400
C1091       C  0.70915108  0.44024516  0.08585689    -0.26400
C1092       C  0.69717118  0.40232394  0.10141023    -0.14400
C1093       C  0.65705738  0.39504913  0.10666761     0.36200
C1094       C  0.62976309  0.42397573  0.09347046    -0.25800
C1095       C  0.64188553  0.45987679  0.07410480    -0.15000
C1096       C  0.68201305  0.46852351  0.07162530     0.37300
N1097       N  0.69533067  0.50404846  0.05077913    -0.89300
H1098       H  0.73951182  0.44581647  0.07974897     0.18400
H1099       H  0.59904842  0.41623773  0.09457531     0.18400
N1100       N  0.64393004  0.35678722  0.12243285    -0.88300
H1101       H  0.71212295  0.49405860  0.02604418     0.35800
H1102       H  0.71336575  0.52146218  0.07066962     0.40900
H1103       H  0.62635147  0.34180927  0.10035602     0.40500
H1104       H  0.62675301  0.36335521  0.14788063     0.35400
C1105       C  0.68796483  0.53312321  0.92234614    -0.26400
C1106       C  0.64868752  0.53860145  0.91218561    -0.14400
C1107       C  0.63827142  0.57521548  0.89304502     0.36200
C1108       C  0.66464345  0.60896006  0.89346441    -0.25800
C1109       C  0.70210666  0.60526960  0.90985985    -0.15000
C1110       C  0.71482245  0.56601482  0.92082553     0.37300
N1111       N  0.75390812  0.56081266  0.93500914    -0.89300
H1112       H  0.69669073  0.50510503  0.93671929     0.18400
H1113       H  0.65498788  0.63882142  0.88403751     0.18400
N1114       N  0.59979804  0.57910482  0.87662627    -0.88300
H1115       H  0.75290265  0.55094560  0.96493371     0.35800
H1116       H  0.76662966  0.53763240  0.91697943     0.40900
H1117       H  0.59672391  0.55743812  0.85259889     0.40500
H1118       H  0.59640302  0.60809396  0.86419529     0.35400
C1119       C  0.56513875  0.64412552  0.04703738    -0.26400
C1120       C  0.52567482  0.63288287  0.05087229    -0.14400
C1121       C  0.50152032  0.65895528  0.07388727     0.36200
C1122       C  0.51722877  0.69469487  0.09350076    -0.25800
C1123       C  0.55680366  0.70672599  0.08937726    -0.15000
C1124       C  0.58056417  0.68090228  0.06486236     0.37300
N1125       N  0.62025331  0.69178346  0.05718536    -0.89300
H1126       H  0.58440603  0.62420224  0.02973458     0.18400
H1127       H  0.49752920  0.71294176  0.11175363     0.18400
N1128       N  0.46108344  0.64924490  0.07806839    -0.88300
H1129       H  0.62375243  0.69378283  0.02574271     0.35800
H1130       H  0.63786998  0.66809684  0.06719099     0.40900
H1131       H  0.44517122  0.67377276  0.06702292     0.40500
H1132       H  0.45517191  0.64742385  0.10909769     0.35400
C1133       C  0.52251859  0.65660554  0.93589540    -0.26400
C1134       C  0.51657078  0.61832776  0.91559197    -0.14400
C1135       C  0.48329603  0.61345418  0.88988671     0.36200
C1136       C  0.45247743  0.64154738  0.89387836    -0.25800
C1137       C  0.45551162  0.67554658  0.92096745    -0.15000
C1138       C  0.49229204  0.68505094  0.93909381     0.37300
N1139       N  0.49854589  0.72125526  0.96444142    -0.89300
H1140       H  0.54847245  0.66208385  0.95429072     0.18400
H1141       H  0.42487938  0.63478898  0.87880385     0.18400
N1142       N  0.47917767  0.57775482  0.86314670    -0.88300
H1143       H  0.48103223  0.71936888  0.99015317     0.35800
H1144       H  0.49049804  0.74686677  0.94813939     0.40900
H1145       H  0.50124917  0.57935863  0.84152900     0.40500
H1146       H  0.45277529  0.57833090  0.84718083     0.35400
C1147       C  0.36937465  0.56816027  0.08763250    -0.26400
C1148       C  0.33313432  0.56085633  0.06873927    -0.14400
C1149       C  0.32627118  0.52165197  0.04952136     0.36200
C1150       C  0.35793802  0.49510629  0.04127272    -0.25800
C1151       C  0.39570045  0.50599581  0.05458103    -0.15000
C1152       C  0.39996006  0.53999977  0.08217888     0.37300
N1153       N  0.43648981  0.54729449  0.10244281    -0.89300
H1154       H  0.37507283  0.59733558  0.10362538     0.18400
H1155       H  0.35373907  0.46835129  0.02109397     0.18400
N1156       N  0.28800237  0.51117596  0.03443369    -0.88300
H1157       H  0.43145360  0.54928676  0.13371284     0.35800
H1158       H  0.44759571  0.57555069  0.09349748     0.40900
H1159       H  0.26944991  0.51064403  0.05945513     0.40500
H1160       H  0.28772061  0.48120016  0.02180460     0.35400
C1161       C  0.37657947  0.51669879  0.88668421    -0.26400
C1162       C  0.40124475  0.48921044  0.90591399    -0.14400
C1163       C  0.39035489  0.44673959  0.90482516     0.36200
C1164       C  0.35315098  0.43406185  0.89106615    -0.25800
C1165       C  0.32593338  0.46298858  0.87952085    -0.15000
C1166       C  0.33965672  0.50358184  0.87201084     0.37300
N1167       N  0.31475635  0.53332344  0.85407447    -0.89300
H1168       H  0.38496356  0.54886987  0.88507008     0.18400
H1169       H  0.34379282  0.40262276  0.89578279     0.18400
N1170       N  0.41543615  0.41650224  0.92114070    -0.88300
H1171       H  0.30847736  0.55589634  0.87634371     0.35800
H1172       H  0.28833287  0.51954457  0.84476274     0.40900
H1173       H  0.42039569  0.39416623  0.89825234     0.40500
H1174       H  0.40095866  0.40244943  0.94501967     0.35400
C1175       C  0.06019188  0.48418692  0.32787401    -0.26400
C1176       C  0.07306170  0.47622677  0.36725794    -0.14400
C1177       C  0.09565656  0.44058202  0.37289648     0.36200
C1178       C  0.09670479  0.40936920  0.34227239    -0.25800
C1179       C  0.07750678  0.41425530  0.30519314    -0.15000
C1180       C  0.06233997  0.45352663  0.29684221     0.37300
N1181       N  0.04429469  0.46122237  0.25871640    -0.89300
H1182       H  0.04341010  0.51153651  0.32253642     0.18400
H1183       H  0.10956979  0.38002014  0.34884734     0.18400
N1184       N  0.11463249  0.43437925  0.41110059    -0.88300
H1185       H  0.01979450  0.44200681  0.25567947     0.35800
H1186       H  0.06383394  0.45419391  0.23551074     0.40900
H1187       H  0.14432862  0.43071328  0.40557354     0.40500
H1188       H  0.10397569  0.40691539  0.42272930     0.35400
C1189       C  0.90442792  0.51351035  0.37899588    -0.26400
C1190       C  0.93147020  0.48181739  0.37185326    -0.14400
C1191       C  0.94271784  0.47349349  0.33120532     0.36200
C1192       C  0.93436023  0.50229601  0.30129092    -0.25800
C1193       C  0.91595748  0.53972025  0.31176863    -0.15000
C1194       C  0.89716189  0.54279328  0.34942404     0.37300
N1195       N  0.87449971  0.57834533  0.35934175    -0.89300
H1196       H  0.89371399  0.51943576  0.40953656     0.18400
H1197       H  0.94675227  0.49788538  0.27136324     0.18400
N1198       N  0.96527511  0.43819280  0.32023924    -0.88300
H1199       H  0.88701251  0.59343632  0.38491683     0.35800
H1200       H  0.84666947  0.56824857  0.36720947     0.40900
H1201       H  0.94961739  0.41196055  0.32839991     0.40500
H1202       H  0.99120255  0.43938759  0.33691476     0.35400
C1203       C  0.12180636  0.51767953  0.63478425    -0.26400
C1204       C  0.09153369  0.54333091  0.62265266    -0.14400
C1205       C  0.08300049  0.57872293  0.64703539     0.36200
C1206       C  0.09933253  0.58307503  0.68610981    -0.25800
C1207       C  0.12454917  0.55335510  0.70083953    -0.15000
C1208       C  0.13832130  0.52244399  0.67383024     0.37300
N1209       N  0.16705405  0.49415564  0.68700268    -0.89300
H1210       H  0.13012891  0.49153549  0.61569020     0.18400
H1211       H  0.08877153  0.60717794  0.70642926     0.18400
N1212       N  0.05553562  0.60840450  0.63335532    -0.88300
H1213       H  0.15528282  0.46435585  0.68406642     0.35800
H1214       H  0.19076327  0.49597117  0.66736828     0.40900
H1215       H  0.06737624  0.62199022  0.60769557     0.40500
H1216       H  0.05202152  0.63204677  0.65523561     0.35400
C1217       C  0.89981502  0.46039451  0.62518681    -0.26400
C1218       C  0.94041180  0.45575794  0.62651157    -0.14400
C1219       C  0.95639864  0.42895618  0.65521359     0.36200
C1220       C  0.93253946  0.41140895  0.68419810    -0.25800
C1221       C  0.89276170  0.42007005  0.68613353    -0.15000
C1222       C  0.87574410  0.44247642  0.65438692     0.37300
N1223       N  0.83445676  0.44830434  0.65150263    -0.89300
H1224       H  0.88673304  0.47887408  0.60204859     0.18400
H1225       H  0.94629921  0.39388242  0.70766378     0.18400
N1226       N  0.99727475  0.42072957  0.65661204    -0.88300
H1227       H  0.82905878  0.47961201  0.65677899     0.35800
H1228       H  0.81970965  0.43204145  0.67367810     0.40900
H1229       H  0.00099314  0.38892567  0.65341008     0.40500
H1230       H  0.00812107  0.43045112  0.68517805     0.35400
C1231       C  0.05809316  0.32851436  0.50828953    -0.26400
C1232       C  0.07260658  0.36857042  0.51622898    -0.14400
C1233       C  0.09706194  0.37522613  0.55111857     0.36200
C1234       C  0.10035461  0.34472161  0.58028587    -0.25800
C1235       C  0.08121902  0.30684787  0.57493714    -0.15000
C1236       C  0.06326708  0.29748169  0.53669375     0.37300
N1237       N  0.04797257  0.25720212  0.52713943    -0.89300
H1238       H  0.04061146  0.32188381  0.48126279     0.18400
H1239       H  0.11486397  0.35223115  0.60900243     0.18400
N1240       N  0.11619617  0.41408670  0.55911150    -0.88300
H1241       H  0.02701850  0.24990706  0.54850629     0.35800
H1242       H  0.07066212  0.23621933  0.52936784     0.40900
H1243       H  0.14606423  0.40888500  0.56181093     0.40500
H1244       H  0.10640987  0.42583877  0.58712118     0.35400
C1245       C  0.93985260  0.34108457  0.54340876    -0.26400
C1246       C  0.93223897  0.37228998  0.51619328    -0.14400
C1247       C  0.90345142  0.36382272  0.48528222     0.36200
C1248       C  0.88663788  0.32417410  0.48026612    -0.25800
C1249       C  0.89633202  0.29219075  0.50586278    -0.15000
C1250       C  0.92232329  0.30176188  0.53889639     0.37300
N1251       N  0.93288625  0.27128529  0.56719857    -0.89300
H1252       H  0.96087707  0.34658474  0.56774148     0.18400
H1253       H  0.86619970  0.31822848  0.45548470     0.18400
N1254       N  0.89086643  0.39422786  0.45771491    -0.88300
H1255       H  0.92596351  0.28242930  0.59648306     0.35800
H1256       H  0.96287821  0.26746546  0.56572380     0.40900
H1257       H  0.91408597  0.40243039  0.43922756     0.40500
H1258       H  0.88114071  0.41992478  0.47443552     0.35400
C1259       C  0.90981469  0.61985029  0.52668683    -0.26400
C1260       C  0.93316178  0.61765839  0.49139639    -0.14400
C1261       C  0.93617324  0.65307261  0.46789704     0.36200
C1262       C  0.91687760  0.68915726  0.48038870    -0.25800
C1263       C  0.89392672  0.69153058  0.51614856    -0.15000
C1264       C  0.89083540  0.65590337  0.53936334     0.37300
N1265       N  0.86893820  0.65506585  0.57617010    -0.89300
H1266       H  0.90705766  0.59349132  0.54585774     0.18400
H1267       H  0.92102188  0.71592944  0.46209139     0.18400
N1268       N  0.95832149  0.65355819  0.43119199    -0.88300
H1269       H  0.84078200  0.66537813  0.57038942     0.35800
H1270       H  0.88261374  0.67455545  0.59776673     0.40900
H1271       H  0.94806701  0.62982284  0.41155167     0.40500
H1272       H  0.98743269  0.64824011  0.43822029     0.35400
C1273       C  0.06087332  0.65685401  0.48209504    -0.26400
C1274       C  0.07644372  0.61715898  0.47762403    -0.14400
C1275       C  0.10252069  0.60966673  0.44490640     0.36200
C1276       C  0.10465941  0.63723686  0.41284143    -0.25800
C1277       C  0.08387335  0.67390593  0.41443863    -0.15000
C1278       C  0.06512113  0.68545508  0.45098988     0.37300
N1279       N  0.04787568  0.72516483  0.45521803    -0.89300
H1280       H  0.04216526  0.66436596  0.50758838     0.18400
H1281       H  0.12036042  0.62855793  0.38547275     0.18400
N1282       N  0.12479967  0.57270094  0.44262826    -0.88300
H1283       H  0.06111855  0.74033764  0.48028788     0.35800
H1284       H  0.01835103  0.72124609  0.46150366     0.40900
H1285       H  0.15419988  0.58112187  0.44123511     0.40500
H1286       H  0.11747589  0.55658204  0.41553902     0.35400
C1287       C  0.47032159  0.10066349  0.67443869    -0.26400
C1288       C  0.42952270  0.10287263  0.66976932    -0.14400
C1289       C  0.41452925  0.10835387  0.63054286     0.36200
C1290       C  0.43906756  0.10427697  0.59653004    -0.25800
C1291       C  0.47830510  0.09254797  0.60089586    -0.15000
C1292       C  0.49493288  0.09587986  0.64019795     0.37300
N1293       N  0.53620616  0.09175843  0.64528088    -0.89300
H1294       H  0.48244616  0.09730631  0.70463792     0.18400
H1295       H  0.42596426  0.10523252  0.56654530     0.18400
N1296       N  0.37359649  0.11379203  0.62489379    -0.88300
H1297       H  0.54403951  0.09956872  0.67530517     0.35800
H1298       H  0.54962241  0.11418073  0.62787585     0.40900
H1299       H  0.36294930  0.08949556  0.60616967     0.40500
H1300       H  0.36966419  0.14116645  0.60962303     0.35400
C1301       C  0.57722310  0.92609974  0.66019999    -0.26400
C1302       C  0.58209872  0.96022614  0.68631513    -0.14400
C1303       C  0.55017975  0.98667984  0.69304320     0.36200
C1304       C  0.51778176  0.98434560  0.66656963    -0.25800
C1305       C  0.51606581  0.95440997  0.63489265    -0.15000
C1306       C  0.54430465  0.92219651  0.63512715     0.37300
N1307       N  0.54148289  0.88566565  0.60954239    -0.89300
H1308       H  0.60025419  0.90373529  0.65720498     0.18400
H1309       H  0.49582086  0.00791545  0.66879062     0.18400
N1310       N  0.55121177  0.01642485  0.72616834    -0.88300
H1311       H  0.54528684  0.89218436  0.57902034     0.35800
H1312       H  0.51454188  0.87146706  0.61404098     0.40900
H1313       H  0.52724292  0.01101313  0.74461121     0.40500
H1314       H  0.54836530  0.04572687  0.71445286     0.35400
C1315       C  0.36382804  0.08868511  0.47678449    -0.26400
C1316       C  0.35706697  0.05068243  0.49514660    -0.14400
C1317       C  0.32399780  0.02750484  0.48315692     0.36200
C1318       C  0.30150571  0.03951271  0.44989284    -0.25800
C1319       C  0.31236168  0.07372368  0.42680974    -0.15000
C1320       C  0.34185866  0.10035161  0.44277443     0.37300
N1321       N  0.35162280  0.13803854  0.42380343    -0.89300
H1322       H  0.38935981  0.10689994  0.48555990     0.18400
H1323       H  0.27775765  0.01946786  0.43949129     0.18400
N1324       N  0.31595845  0.98904499  0.50154092    -0.88300
H1325       H  0.32657639  0.15577020  0.42253853     0.35800
H1326       H  0.36042518  0.13109681  0.39407047     0.40900
H1327       H  0.31744391  0.96587030  0.47881267     0.40500
H1328       H  0.28746678  0.98972011  0.51245102     0.35400
C1329       C  0.36837359  0.87815174  0.59698287    -0.26400
C1330       C  0.33168032  0.88220173  0.57914900    -0.14400
C1331       C  0.32879129  0.87959274  0.53627771     0.36200
C1332       C  0.36258560  0.88322752  0.51247623    -0.25800
C1333       C  0.39912515  0.88892378  0.53127605    -0.15000
C1334       C  0.40212773  0.88036352  0.57325341     0.37300
N1335       N  0.43917820  0.87830244  0.59323218    -0.89300
H1336       H  0.37113015  0.87857279  0.62985093     0.18400
H1337       H  0.35942208  0.88821776  0.48020582     0.18400
N1338       N  0.29125326  0.87839816  0.51713323    -0.88300
H1339       H  0.44153189  0.90340011  0.61391159     0.35800
H1340       H  0.46145938  0.88082531  0.57205154     0.40900
H1341       H  0.28985930  0.85234399  0.49763915     0.40500
H1342       H  0.28850999  0.90432304  0.49945838     0.35400
C1343       C  0.48506944  0.10984776  0.32700373    -0.26400
C1344       C  0.52303065  0.12745295  0.32685610    -0.14400
C1345       C  0.54349194  0.13074994  0.36399096     0.36200
C1346       C  0.52779314  0.11325519  0.39898411    -0.25800
C1347       C  0.49199207  0.09138365  0.39784082    -0.15000
C1348       C  0.46940694  0.09205080  0.36199806     0.37300
N1349       N  0.43125167  0.07339146  0.36082643    -0.89300
H1350       H  0.46811394  0.10765635  0.29916423     0.18400
H1351       H  0.54508737  0.11482872  0.42662704     0.18400
N1352       N  0.58032719  0.15172797  0.36648864    -0.88300
H1353       H  0.41751871  0.07858088  0.33307088     0.35800
H1354       H  0.41463397  0.08847844  0.38308924     0.40900
H1355       H  0.60091643  0.13125831  0.37727868     0.40500
H1356       H  0.57810559  0.17605482  0.38791032     0.35400
C1357       C  0.48190830  0.98287273  0.32899415    -0.26400
C1358       C  0.48917733  0.95196577  0.35664457    -0.14400
C1359       C  0.46839782  0.91394033  0.35148077     0.36200
C1360       C  0.43605557  0.91089306  0.32478574    -0.25800
C1361       C  0.42482086  0.94448935  0.30220799    -0.15000
C1362       C  0.45042171  0.97937032  0.30153534     0.37300
N1363       N  0.44494033  0.01200873  0.27382299    -0.89300
H1364       H  0.49827847  0.01156117  0.33131358     0.18400
H1365       H  0.41783677  0.88339971  0.32405394     0.18400
N1366       N  0.47813158  0.87969493  0.37604734    -0.88300
H1367       H  0.41928112  0.02753178  0.28027453     0.35800
H1368       H  0.44315022  0.99922732  0.24428101     0.40900
H1369       H  0.50628207  0.87069028  0.36824214     0.40500
H1370       H  0.45977311  0.85446695  0.36921159     0.35400
C1371       C  0.65723126  0.10065385  0.56839066    -0.26400
C1372       C  0.69100931  0.07845829  0.55967678    -0.14400
C1373       C  0.69740693  0.06493307  0.51898495     0.36200
C1374       C  0.66671275  0.06521199  0.49040165    -0.25800
C1375       C  0.63008136  0.07959210  0.50197406    -0.15000
C1376       C  0.62730817  0.10262234  0.53922858     0.37300
N1377       N  0.59279903  0.12484607  0.54951184    -0.89300
H1378       H  0.65220159  0.11244666  0.59908861     0.18400
H1379       H  0.66984225  0.04826229  0.46168951     0.18400
N1380       N  0.73294304  0.04484989  0.50853455    -0.88300
H1381       H  0.56897325  0.10457138  0.54902824     0.35800
H1382       H  0.58824687  0.14640662  0.52714694     0.40900
H1383       H  0.72607614  0.01461337  0.49915843     0.40500
H1384       H  0.74508512  0.05980774  0.48384513     0.35400
C1385       C  0.66792870  0.86488687  0.47801665    -0.26400
C1386       C  0.68995744  0.87810018  0.44456511    -0.14400
C1387       C  0.67312325  0.90795439  0.41949817     0.36200
C1388       C  0.63758324  0.92579708  0.43036335    -0.25800
C1389       C  0.61792699  0.91584877  0.46635273    -0.15000
C1390       C  0.63285846  0.88393014  0.48952953     0.37300
N1391       N  0.61339806  0.87159047  0.52558211    -0.89300
H1392       H  0.67894929  0.84096603  0.49695787     0.18400
H1393       H  0.62657312  0.94975172  0.41138961     0.18400
N1394       N  0.69165005  0.92241743  0.38371002    -0.88300
H1395       H  0.63270956  0.87581800  0.55013167     0.35800
H1396       H  0.60678289  0.84015792  0.52234723     0.40900
H1397       H  0.69524421  0.89751395  0.36323687     0.40500
H1398       H  0.71858094  0.93572412  0.39142067     0.35400
loop_ 
_geom_bond_atom_site_label_1 
_geom_bond_atom_site_label_2 
_geom_bond_distance 
_geom_bond_site_symmetry_2 
_ccdc_geom_bond_type 
O1            C9   1.252       .  A
O1          Co21   1.977   1_565  S
O2           C10   1.250       .  A
O2          Co22   1.967   1_565  S
O3           C11   1.239       .  A
O3          Co23   1.935       .  S
O4           C12   1.252       .  A
O4          Co24   1.952       .  S
O5           C11   1.282       .  A
O5          Co22   2.092   1_565  S
O6           C12   1.283       .  A
O6          Co21   2.077   1_565  S
O7           C10   1.263       .  A
O7          Co24   2.015       .  S
O8            C9   1.260       .  A
O8          Co23   2.001       .  S
C9         C1389   1.500       .  S
C10        C1333   1.489       .  S
C11        C1305   1.494       .  S
C12        C1358   1.497       .  S
O13          C26   1.254       .  A
O13         Co21   1.943       .  S
O14          C27   1.251       .  A
O14         Co22   1.942       .  S
O15          C28   1.292       .  A
O15         Co23   2.055   1_545  S
O16          C29   1.290       .  A
O16         Co24   2.055   1_545  S
O17          C29   1.279       .  A
O17         Co22   1.922       .  S
O18          C28   1.280       .  A
O18         Co21   1.926       .  S
O19          C26   1.281       .  A
O19         Co24   2.067   1_545  S
O20          C27   1.283       .  A
O20         Co23   2.086   1_545  S
Co21         O25   2.007   1_545  S
Co22         O25   2.012   1_545  S
Co23         O25   2.066       .  S
Co24         O25   2.074       .  S
C26        C1347   1.498       .  S
C27        C1291   1.507       .  S
C28        C1375   1.480       .  S
C29        C1316   1.477       .  S
O30          C38   1.250       .  A
O30         Co50   1.947       .  S
O31          C39   1.264       .  A
O31         Co51   1.950       .  S
O32          C40   1.281       .  A
O32         Co52   2.045   1_655  S
O33          C41   1.260   1_455  A
O33         Co53   1.970       .  S
O34          C40   1.276       .  A
O34         Co51   1.955       .  S
O35          C41   1.270       .  A
O35         Co50   2.007       .  S
O36          C39   1.296       .  A
O36         Co53   2.093   1_655  S
O37          C38   1.276       .  A
O37         Co52   2.065   1_655  S
C38        C1260   1.500       .  S
C39        C1246   1.509       .  S
C40        C1190   1.493       .  S
C41        C1218   1.488       .  S
O42          C55   1.271       .  A
O42         Co50   1.994   1_455  S
O43          C56   1.279       .  A
O43         Co51   2.043   1_455  S
O44          C57   1.260       .  A
O44         Co52   1.947       .  S
O45          C58   1.245       .  A
O45         Co53   1.943       .  S
O46          C58   1.272       .  A
O46         Co51   2.068   1_455  S
O47          C57   1.291       .  A
O47         Co50   2.089   1_455  S
O48          C55   1.269       .  A
O48         Co53   1.986       .  S
O49          C56   1.278       .  A
O49         Co52   1.952       .  S
Co50         O54   2.007   1_655  S
Co51         O54   2.029   1_655  S
Co52         O54   2.007       .  S
Co53         O54   1.990       .  S
C55        C1204   1.483       .  S
C56        C1176   1.489       .  S
C57        C1274   1.502       .  S
C58        C1232   1.505       .  S
O59          C67   1.283       .  A
O59         Co79   2.063   1_554  S
O60          C68   1.262       .  A
O60         Co80   1.984   1_554  S
O61          C69   1.259       .  A
O61         Co81   1.936   1_554  S
O62          C70   1.254       .  A
O62         Co82   1.955       .  S
O63          C69   1.294       .  A
O63         Co80   2.096   1_554  S
O64          C70   1.276       .  A
O64         Co79   2.066   1_554  S
O65          C68   1.272       .  A
O65         Co82   2.017       .  S
O66          C67   1.272       .  A
O66         Co81   1.961   1_554  S
C67        C1151   1.499       .  S
C68        C1095   1.482       .  S
C69        C1064   1.501       .  S
C70        C1120   1.490       .  S
O71          C84   1.261       .  A
O71         Co79   1.945       .  S
O72          C85   1.255       .  A
O72         Co80   1.960       .  S
O73          C86   1.281       .  A
O73         Co81   2.052       .  S
O74          C87   1.267       .  A
O74         Co82   1.986   1_556  S
O75          C87   1.276       .  A
O75         Co80   2.021       .  S
O76          C86   1.278       .  A
O76         Co79   1.952       .  S
O77          C84   1.291       .  A
O77         Co82   2.079   1_556  S
O78          C85   1.274       .  A
O78         Co81   2.058       .  S
Co79         O83   2.027       .  S
Co80         O83   2.023       .  S
Co81         O83   2.012       .  S
Co82         O83   2.014   1_554  S
C84        C1134   1.499       .  S
C85        C1078   1.510       .  S
C86        C1162   1.501       .  S
C87        C1106   1.482       .  S
N88          C92   1.355       .  A
N88          C89   1.358       .  A
N88        C1050   1.459       .  S
C89        C1036   1.489       .  S
C89          C90   1.389   1_565  A
C90          C91   1.366       .  A
C90          H93   1.080       .  S
C91          C92   1.380   1_545  A
C91          H94   1.083       .  S
C92        C1302   1.484       .  S
C95        C1025   1.497       .  S
C95          N96   1.367       .  A
C95         N100   1.363       .  A
N96          C97   1.367       .  A
C97        C1053   1.515       .  S
C97          N98   1.359       .  A
N98          C99   1.362       .  A
C99        C1011   1.494       .  S
C99         N100   1.362       .  A
N101        C105   1.368       .  A
N101        C102   1.356       .  A
N101       C1022   1.464       .  S
C102        C994   1.483       .  S
C102        C103   1.381       .  A
C103        C104   1.366       .  A
C103        H106   1.082       .  S
C104        C105   1.389       .  A
C104        H107   1.082       .  S
C105       C1263   1.508       .  S
N108        C112   1.357       .  A
N108        C109   1.366       .  A
N108       C1008   1.449       .  S
C109        C980   1.502       .  S
C109        C110   1.388       .  A
C110        C111   1.369       .  A
C110        H113   1.080   1_556  S
C111        C112   1.381       .  A
C111        H114   1.083       .  S
C112       C1109   1.485       .  S
C115        C955   1.502       .  S
C115        N116   1.367       .  A
C115        N120   1.369       .  A
N116        C117   1.367       .  A
C117        C966   1.509       .  S
C117        N118   1.368       .  A
N118        C119   1.368       .  A
C119        C938   1.512       .  S
C119        N120   1.367       .  A
N121        C125   1.373       .  A
N121        C122   1.377       .  A
N121        C969   1.462       .  S
C122       C1165   1.488       .  S
C122        C123   1.383       .  A
C123        C124   1.351       .  A
C123        H126   1.083       .  S
C124        C125   1.376       .  A
C124        H127   1.082       .  S
C125        C924   1.484       .  S
N128        C132   1.371       .  A
N128        C129   1.373       .  A
N128        C952   1.463       .  S
C129        C910   1.500       .  S
C129        C130   1.382       .  A
C130        C131   1.362       .  A
C130        H133   1.082   1_545  S
C131        C132   1.381       .  A
C131        H134   1.083       .  S
C132       C1288   1.493       .  S
N135        C139   1.364       .  A
N135        C136   1.375       .  A
N135        C941   1.468       .  S
C136        C899   1.508       .  S
C136        C137   1.387       .  A
C137        C138   1.360       .  A
C137        H140   1.078   1_455  S
C138        C139   1.378       .  A
C138        H141   1.082       .  S
C139       C1235   1.490       .  S
O142        C150   1.252       .  A
O142       Co162   1.983       .  S
O143        C151   1.252       .  A
O143       Co163   1.985       .  S
O144        C152   1.254   1_556  A
O144       Co164   1.946       .  S
O145        C153   1.247   1_554  A
O145       Co165   1.945       .  S
O146        C152   1.281       .  A
O146       Co163   2.061       .  S
O147        C153   1.277       .  A
O147       Co162   2.065       .  S
O148        C151   1.255   1_545  A
O148       Co165   1.978       .  S
O149        C150   1.259   1_565  A
O149       Co164   2.002       .  S
C150        C913   1.505       .  S
C151        C854   1.486       .  S
C152        C826   1.493       .  S
C153        C871   1.473   1_556  S
O154        C167   1.250   1_556  A
O154       Co162   1.949       .  S
O155        C168   1.255       .  A
O155       Co163   1.953       .  S
O156        C169   1.297   1_565  A
O156       Co164   2.079       .  S
O157        C170   1.291   1_545  A
O157       Co165   2.057       .  S
O158        C170   1.279       .  A
O158       Co163   1.926       .  S
O159        C169   1.274       .  A
O159       Co162   1.890       .  S
O160        C167   1.276       .  A
O160       Co165   2.060       .  S
O161        C168   1.278   1_556  A
O161       Co164   2.067       .  S
Co162       O166   1.989   1_556  S
Co163       O166   2.010   1_565  S
Co164       O166   2.095   1_566  S
Co165       O166   2.089       .  S
C167        C882   1.499       .  S
C168        C812   1.512       .  S
C169       C1039   1.480       .  S
C170        C840   1.479   1_565  S
C171        C798   1.509       .  S
C171        N172   1.367       .  A
C171        N176   1.361       .  A
N172        C173   1.370       .  A
C173        C787   1.493       .  S
C173        N174   1.365       .  A
N174        C175   1.362       .  A
C175        C773   1.497       .  S
C175        N176   1.358       .  A
N177        C181   1.362       .  A
N177        C178   1.368       .  A
N177        C801   1.462       .  S
C178        C829   1.498       .  S
C178        C179   1.386       .  A
C179        C180   1.365       .  A
C179        H182   1.082   1_556  S
C180        C181   1.382       .  A
C180        H183   1.083       .  S
C181       C1137   1.486       .  S
N184        C188   1.361       .  A
N184        C185   1.370       .  A
N184        C784   1.452       .  S
C185        C756   1.499       .  S
C185        C186   1.385       .  A
C186        C187   1.364       .  A
C186        H189   1.083       .  S
C187        C188   1.379       .  A
C187        H190   1.082       .  S
C188       C1330   1.484       .  S
N191        C195   1.358       .  A
N191        C192   1.357       .  A
N191        C770   1.448       .  S
C192       C1207   1.479       .  S
C192        C193   1.383       .  A
C193        C194   1.367       .  A
C193        H196   1.082       .  S
C194        C195   1.384       .  A
C194        H197   1.083       .  S
C195        C745   1.482       .  S
C198        C714   1.491       .  S
C198        N199   1.363       .  A
C198        N203   1.359       .  A
N199        C200   1.367       .  A
C200        C728   1.511       .  S
C200        N201   1.373       .  A
N201        C202   1.368       .  A
C202        C700   1.508       .  S
C202        N203   1.362       .  A
N204        C208   1.362       .  A
N204        C205   1.371       .  A
N204        C731   1.459       .  S
C205       C1249   1.513       .  S
C205        C206   1.386       .  A
C206        C207   1.368       .  A
C206        H209   1.081       .  S
C207        C208   1.384       .  A
C207        H210   1.083       .  S
C208        C686   1.491       .  S
N211        C215   1.368       .  A
N211        C212   1.368       .  A
N211        C717   1.467       .  S
C212        C675   1.491       .  S
C212        C213   1.381       .  A
C213        C214   1.366       .  A
C213        H216   1.082       .  S
C214        C215   1.383       .  A
C214        H217   1.083       .  S
C215       C1092   1.495       .  S
N218        C222   1.365       .  A
N218        C219   1.373       .  A
N218        C703   1.461       .  S
C219       C1344   1.506       .  S
C219        C220   1.385       .  A
C220        C221   1.365       .  A
C220        H223   1.082       .  S
C221        C222   1.382       .  A
C221        H224   1.083       .  S
C222        C843   1.491       .  S
O225        C233   1.265       .  A
O225       Co245   1.989       .  S
O226        C234   1.286   1_554  A
O226       Co246   2.077       .  S
O227        C235   1.249       .  A
O227       Co247   1.949   1_455  S
O228        C236   1.252   1_455  A
O228       Co248   1.938       .  S
O229        C235   1.275       .  A
O229       Co246   2.046       .  S
O230        C236   1.292       .  A
O230       Co245   2.096       .  S
O231        C234   1.270       .  A
O231       Co248   1.929       .  S
O232        C233   1.273   1_554  A
O232       Co247   2.009       .  S
C233        C983   1.496       .  S
C234        C661   1.495       .  S
C235        C633   1.496       .  S
C236        C742   1.495   1_655  S
O237        C250   1.245   1_655  A
O237       Co245   1.946       .  S
O238        C251   1.269   1_455  A
O238       Co246   1.954       .  S
O239        C252   1.269       .  A
O239       Co247   1.994       .  S
O240        C253   1.282       .  A
O240       Co248   2.052       .  S
O241        C253   1.279   1_554  A
O241       Co246   1.951       .  S
O242        C252   1.270   1_556  A
O242       Co245   1.996       .  S
O243        C250   1.273       .  A
O243       Co248   2.075       .  S
O244        C251   1.291       .  A
O244       Co247   2.071       .  S
Co245       O249   2.003   1_556  S
Co246       O249   2.038   1_455  S
Co247       O249   1.994       .  S
Co248       O249   2.002   1_456  S
C250        C616   1.497   1_455  S
C251        C644   1.503   1_655  S
C252        C672   1.491       .  S
C253        C927   1.500       .  S
N254        C258   1.367       .  A
N254        C255   1.361       .  A
N254        C602   1.471       .  S
C255        C591   1.500       .  S
C255        C256   1.383       .  A
C256        C257   1.366       .  A
C256        H259   1.082       .  S
C257        C258   1.388       .  A
C257        H260   1.082       .  S
C258       C1319   1.507       .  S
C261        C605   1.515       .  S
C261        N262   1.363       .  A
C261        N266   1.367       .  A
N262        C263   1.362       .  A
C263        C574   1.500       .  S
C263        N264   1.364       .  A
N264        C265   1.369       .  A
C265        C560   1.512       .  S
C265        N266   1.368       .  A
N267        C271   1.360       .  A
N267        C268   1.370       .  A
N267        C577   1.461       .  S
C268        C647   1.501       .  S
C268        C269   1.386       .  A
C269        C270   1.368       .  A
C269        H272   1.083   1_455  S
C270        C271   1.381       .  A
C270        H273   1.082       .  S
C271       C1179   1.490       .  S
N274        C278   1.367       .  A
N274        C275   1.359       .  A
N274        C563   1.458       .  S
C275       C1067   1.485       .  S
C275        C276   1.383       .  A
C276        C277   1.365       .  A
C276        H279   1.083       .  S
C277        C278   1.384       .  A
C277        H280   1.082   1_554  S
C278        C868   1.493       .  S
C281        C518   1.500       .  S
C281        N282   1.364       .  A
C281        N286   1.366       .  A
N282        C283   1.361       .  A
C283        C535   1.506       .  S
C283        N284   1.361       .  A
N284        C285   1.366       .  A
C285        C546   1.508       .  S
C285        N286   1.369       .  A
N287        C291   1.362       .  A
N287        C288   1.365       .  A
N287        C549   1.459       .  S
C288       C1221   1.489       .  S
C288        C289   1.387       .  A
C289        C290   1.365       .  A
C289        H292   1.082       .  S
C290        C291   1.379       .  A
C290        H293   1.083       .  S
C291        C619   1.487       .  S
N294        C298   1.373       .  A
N294        C295   1.364       .  A
N294        C532   1.457       .  S
C295        C885   1.489       .  S
C295        C296   1.381       .  A
C296        C297   1.365       .  A
C296        H299   1.083       .  S
C297        C298   1.386       .  A
C297        H300   1.083       .  S
C298       C1081   1.510       .  S
N301        C305   1.372       .  A
N301        C302   1.363       .  A
N301        C521   1.454       .  S
C302       C1372   1.488       .  S
C302        C303   1.381       .  A
C303        C304   1.363   1_545  A
C303        H306   1.083       .  S
C304        C305   1.385   1_565  A
C304        H307   1.078       .  S
C305        C507   1.507       .  S
C308        C465   1.504       .  S
C308        N309   1.378       .  A
C308        N313   1.363       .  A
N309        C310   1.377       .  A
C310        C476   1.522       .  S
C310        N311   1.367       .  A
N311        C312   1.359       .  A
C312        C490   1.495       .  S
C312        N313   1.358       .  A
N314        C318   1.367       .  A
N314        C315   1.368       .  A
N314        C493   1.465       .  S
C315       C1386   1.509       .  S
C315        C316   1.385       .  A
C316        C317   1.366       .  A
C316        H319   1.081       .  S
C317        C318   1.382       .  A
C317        H320   1.083       .  S
C318        C448   1.500       .  S
N321        C325   1.366       .  A
N321        C322   1.374       .  A
N321        C479   1.469       .  S
C322        C630   1.498       .  S
C322        C323   1.383       .  A
C323        C324   1.362       .  A
C323        H326   1.082   1_655  S
C324        C325   1.382       .  A
C324        H327   1.083       .  S
C325       C1193   1.489       .  S
N328        C332   1.372       .  A
N328        C329   1.373       .  A
N328        C462   1.475       .  S
C329       C1123   1.516       .  S
C329        C330   1.386       .  A
C330        C331   1.363       .  A
C330        H333   1.079       .  S
C331        C332   1.382       .  A
C331        H334   1.084       .  S
C332        C815   1.502       .  S
C335        C420   1.511       .  S
C335        N336   1.364       .  A
C335        N340   1.366       .  A
N336        C337   1.367       .  A
C337        C434   1.518       .  S
C337        N338   1.369       .  A
N338        C339   1.371       .  A
C339        C406   1.510       .  S
C339        N340   1.364       .  A
N341        C345   1.369       .  A
N341        C342   1.364       .  A
N341        C437   1.465       .  S
C342       C1361   1.498       .  S
C342        C343   1.378       .  A
C343        C344   1.364       .  A
C343        H346   1.081   1_565  S
C344        C345   1.390       .  A
C344        H347   1.078   1_565  S
C345        C857   1.509       .  S
N348        C352   1.372       .  A
N348        C349   1.362       .  A
N348        C423   1.460       .  S
C349       C1277   1.486       .  S
C349        C350   1.380       .  A
C350        C351   1.365       .  A
C350        H353   1.082       .  S
C351        C352   1.387       .  A
C351        H354   1.083   1_455  S
C352        C395   1.506       .  S
N355        C359   1.373       .  A
N355        C356   1.371       .  A
N355        C409   1.466       .  S
C356       C1148   1.498       .  S
C356        C357   1.382       .  A
C357        C358   1.361   1_554  A
C357        H360   1.083   1_554  S
C358        C359   1.385   1_556  A
C358        H361   1.082       .  S
C359        C658   1.506       .  S
O362        C370   1.258   1_655  A
O362       Co382   1.942       .  S
O363        C371   1.248   1_455  A
O363       Co383   1.947       .  S
O364        C372   1.270       .  A
O364       Co384   1.999       .  S
O365        C373   1.280   1_545  A
O365       Co385   2.051       .  S
O366        C372   1.270       .  A
O366       Co383   1.999   1_565  S
O367        C373   1.275       .  A
O367       Co382   1.956       .  S
O368        C371   1.273       .  A
O368       Co385   2.065       .  S
O369        C370   1.289       .  A
O369       Co384   2.077       .  S
C370        C997   1.493   1_455  S
C371        C896   1.490   1_655  S
C372        C759   1.497       .  S
C373        C504   1.497       .  S
O374        C387   1.280       .  A
O374       Co382   2.051       .  S
O375        C388   1.265       .  A
O375       Co383   1.979       .  S
O376        C389   1.251   1_455  A
O376       Co384   1.955       .  S
O377        C390   1.259   1_655  A
O377       Co385   1.945       .  S
O378        C390   1.290       .  A
O378       Co383   2.084       .  S
O379        C389   1.276       .  A
O379       Co382   2.063       .  S
O380        C387   1.276   1_545  A
O380       Co385   1.955       .  S
O381        C388   1.269   1_565  A
O381       Co384   2.000       .  S
Co382       O386   2.017   1_655  S
Co383       O386   2.009   1_545  S
Co384       O386   2.019       .  S
Co385       O386   2.038   1_645  S
C387        C451   1.492       .  S
C388        C588   1.497       .  S
C389        C392   1.504   1_655  S
C390        C689   1.502   1_455  S
C391        C392   1.416       .  A
C391        C396   1.404       .  A
C391        H398   1.084       .  S
C392        C393   1.412   1_455  A
C393        C394   1.406       .  A
C393        N400   1.431       .  S
C394        C395   1.417   1_655  A
C394        H399   1.083       .  S
C395        C396   1.410       .  A
C396        N397   1.431       .  S
N397        H401   1.043       .  S
N397        H402   1.043       .  S
N400        H403   1.046       .  S
N400        H404   1.041       .  S
C405        C406   1.402       .  A
C405        C410   1.406       .  A
C405        H412   1.084       .  S
C406        C407   1.418       .  A
C407        C408   1.422       .  A
C407        N414   1.431       .  S
C408        C409   1.408       .  A
C408        H413   1.083       .  S
C409        C410   1.430       .  A
C410        N411   1.432       .  S
N411        H415   1.045       .  S
N411        H416   1.042       .  S
N414        H417   1.046       .  S
N414        H418   1.046       .  S
C419        C420   1.415       .  A
C419        C424   1.420       .  A
C419        H426   1.083       .  S
C420        C421   1.415       .  A
C421        C422   1.409       .  A
C421        N428   1.432       .  S
C422        C423   1.410       .  A
C422        H427   1.083       .  S
C423        C424   1.408       .  A
C424        N425   1.431       .  S
N425        H429   1.046       .  S
N425        H430   1.045       .  S
N428        H431   1.045       .  S
N428        H432   1.046       .  S
C433        C434   1.415       .  A
C433        C438   1.421       .  A
C433        H440   1.083       .  S
C434        C435   1.416       .  A
C435        C436   1.408       .  A
C435        N442   1.432       .  S
C436        C437   1.411       .  A
C436        H441   1.083       .  S
C437        C438   1.418       .  A
C438        N439   1.437       .  S
N439        H443   1.046       .  S
N439        H444   1.044       .  S
N442        H445   1.046       .  S
N442        H446   1.046       .  S
C447        C448   1.401       .  A
C447        C452   1.409       .  A
C447        H454   1.084       .  S
C448        C449   1.426       .  A
C449        C450   1.404       .  A
C449        N456   1.432       .  S
C450        C451   1.400       .  A
C450        H455   1.084   1_565  S
C451        C452   1.423       .  A
C452        N453   1.437       .  S
N453        H457   1.046       .  S
N453        H458   1.045       .  S
N456        H459   1.042       .  S
N456        H460   1.045       .  S
C461        C462   1.418       .  A
C461        C466   1.409       .  A
C461        H468   1.082       .  S
C462        C463   1.418       .  A
C463        C464   1.424       .  A
C463        N470   1.435       .  S
C464        C465   1.409       .  A
C464        H469   1.083       .  S
C465        C466   1.413       .  A
C466        N467   1.433       .  S
N467        H471   1.045       .  S
N467        H472   1.045       .  S
N470        H473   1.046       .  S
N470        H474   1.045       .  S
C475        C476   1.407       .  A
C475        C480   1.406       .  A
C475        H482   1.083       .  S
C476        C477   1.420       .  A
C477        C478   1.430       .  A
C477        N484   1.431       .  S
C478        C479   1.412       .  A
C478        H483   1.083       .  S
C479        C480   1.419       .  A
C480        N481   1.432       .  S
N481        H485   1.046       .  S
N481        H486   1.045       .  S
N484        H487   1.047       .  S
N484        H488   1.044       .  S
C489        C490   1.407       .  A
C489        C494   1.417       .  A
C489        H496   1.084       .  S
C490        C491   1.412       .  A
C491        C492   1.405       .  A
C491        N498   1.433       .  S
C492        C493   1.416       .  A
C492        H497   1.083       .  S
C493        C494   1.412       .  A
C494        N495   1.430       .  S
N495        H499   1.045       .  S
N495        H500   1.046       .  S
N498        H501   1.045       .  S
N498        H502   1.046       .  S
C503        C504   1.401       .  A
C503        C508   1.414       .  A
C503        H510   1.082       .  S
C504        C505   1.420   1_565  A
C505        C506   1.402       .  A
C505        N512   1.433       .  S
C506        C507   1.400       .  A
C506        H511   1.079       .  S
C507        C508   1.424   1_545  A
C508        N509   1.431       .  S
N509        H513   1.045       .  S
N509        H514   1.046       .  S
N512        H515   1.045       .  S
N512        H516   1.046       .  S
C517        C518   1.411       .  A
C517        C522   1.417       .  A
C517        H524   1.083       .  S
C518        C519   1.412       .  A
C519        C520   1.407       .  A
C519        N526   1.432       .  S
C520        C521   1.407       .  A
C520        H525   1.084       .  S
C521        C522   1.410       .  A
C522        N523   1.431       .  S
N523        H527   1.046       .  S
N523        H528   1.045       .  S
N526        H529   1.045       .  S
N526        H530   1.045       .  S
C531        C532   1.410       .  A
C531        C536   1.405       .  A
C531        H538   1.083       .  S
C532        C533   1.411       .  A
C533        C534   1.413       .  A
C533        N540   1.430       .  S
C534        C535   1.413       .  A
C534        H539   1.083       .  S
C535        C536   1.420       .  A
C536        N537   1.433       .  S
N537        H541   1.045       .  S
N537        H542   1.045       .  S
N540        H543   1.045       .  S
N540        H544   1.045       .  S
C545        C546   1.411       .  A
C545        C550   1.414       .  A
C545        H552   1.083       .  S
C546        C547   1.417       .  A
C547        C548   1.406       .  A
C547        N554   1.433       .  S
C548        C549   1.409       .  A
C548        H553   1.083       .  S
C549        C550   1.412       .  A
C550        N551   1.430       .  S
N551        H555   1.045       .  S
N551        H556   1.046       .  S
N554        H557   1.046       .  S
N554        H558   1.046       .  S
C559        C560   1.414       .  A
C559        C564   1.414       .  A
C559        H566   1.083       .  S
C560        C561   1.416       .  A
C561        C562   1.409       .  A
C561        N568   1.432       .  S
C562        C563   1.410       .  A
C562        H567   1.083       .  S
C563        C564   1.412       .  A
C564        N565   1.430       .  S
N565        H569   1.046       .  S
N565        H570   1.044       .  S
N568        H571   1.046       .  S
N568        H572   1.045       .  S
C573        C574   1.401       .  A
C573        C578   1.404       .  A
C573        H580   1.084       .  S
C574        C575   1.413       .  A
C575        C576   1.419       .  A
C575        N582   1.431       .  S
C576        C577   1.409       .  A
C576        H581   1.083       .  S
C577        C578   1.427       .  A
C578        N579   1.432       .  S
N579        H583   1.043       .  S
N579        H584   1.045       .  S
N582        H585   1.046       .  S
N582        H586   1.045       .  S
C587        C588   1.409       .  A
C587        C592   1.395       .  A
C587        H594   1.084       .  S
C588        C589   1.416       .  A
C589        C590   1.405       .  A
C589        N596   1.432   1_545  S
C590        C591   1.411       .  A
C590        H595   1.084       .  S
C591        C592   1.421       .  A
C592        N593   1.433       .  S
N593        H597   1.038       .  S
N593        H598   1.044       .  S
N596        H599   1.045       .  S
N596        H600   1.046       .  S
C601        C602   1.409       .  A
C601        C606   1.411       .  A
C601        H608   1.080       .  S
C602        C603   1.428       .  A
C603        C604   1.415       .  A
C603        N610   1.432       .  S
C604        C605   1.408       .  A
C604        H609   1.083       .  S
C605        C606   1.418       .  A
C606        N607   1.432       .  S
N607        H611   1.046       .  S
N607        H612   1.045       .  S
N610        H613   1.045       .  S
N610        H614   1.046       .  S
C615        C616   1.404       .  A
C615        C620   1.412       .  A
C615        H622   1.083   1_655  S
C616        C617   1.424       .  A
C617        C618   1.405       .  A
C617        N624   1.433       .  S
C618        C619   1.393       .  A
C618        H623   1.083       .  S
C619        C620   1.416       .  A
C620        N621   1.433       .  S
N621        H625   1.044       .  S
N621        H626   1.044       .  S
N624        H627   1.046       .  S
N624        H628   1.046       .  S
C629        C630   1.398       .  A
C629        C634   1.411       .  A
C629        H636   1.084       .  S
C630        C631   1.427   1_655  A
C631        C632   1.400       .  A
C631        N638   1.429       .  S
C632        C633   1.398       .  A
C632        H637   1.084       .  S
C633        C634   1.424   1_455  A
C634        N635   1.433       .  S
N635        H639   1.046       .  S
N635        H640   1.046       .  S
N638        H641   1.051       .  S
N638        H642   1.035       .  S
C643        C644   1.417       .  A
C643        C648   1.411       .  A
C643        H650   1.083       .  S
C644        C645   1.417   1_455  A
C645        C646   1.401       .  A
C645        N652   1.433       .  S
C646        C647   1.413   1_655  A
C646        H651   1.082       .  S
C647        C648   1.402       .  A
C648        N649   1.431       .  S
N649        H653   1.045       .  S
N649        H654   1.046       .  S
N652        H655   1.045       .  S
N652        H656   1.045       .  S
C657        C658   1.413   1_556  A
C657        C662   1.406       .  A
C657        H664   1.082       .  S
C658        C659   1.409       .  A
C659        C660   1.413       .  A
C659        N666   1.430       .  S
C660        C661   1.412   1_554  A
C660        H665   1.084       .  S
C661        C662   1.410       .  A
C662        N663   1.437       .  S
N663        H667   1.045       .  S
N663        H668   1.043       .  S
N666        H669   1.045       .  S
N666        H670   1.046       .  S
C671        C672   1.407       .  A
C671        C676   1.407       .  A
C671        H678   1.084       .  S
C672        C673   1.415       .  A
C673        C674   1.401       .  A
C673        N680   1.433       .  S
C674        C675   1.400       .  A
C674        H679   1.080       .  S
C675        C676   1.418       .  A
C676        N677   1.433       .  S
N677        H681   1.046       .  S
N677        H682   1.042       .  S
N680        H683   1.045       .  S
N680        H684   1.047       .  S
C685        C686   1.400       .  A
C685        C690   1.412       .  A
C685        H692   1.084       .  S
C686        C687   1.407       .  A
C687        C688   1.405       .  A
C687        N694   1.428       .  S
C688        C689   1.405       .  A
C688        H693   1.083   1_655  S
C689        C690   1.427       .  A
C690        N691   1.436       .  S
N691        H695   1.046       .  S
N691        H696   1.043       .  S
N694        H697   1.042       .  S
N694        H698   1.047       .  S
C699        C700   1.413       .  A
C699        C704   1.418       .  A
C699        H706   1.083       .  S
C700        C701   1.416       .  A
C701        C702   1.410       .  A
C701        N708   1.438       .  S
C702        C703   1.410       .  A
C702        H707   1.083       .  S
C703        C704   1.414       .  A
C704        N705   1.431       .  S
N705        H709   1.047       .  S
N705        H710   1.044       .  S
N708        H711   1.045       .  S
N708        H712   1.046       .  S
C713        C714   1.404       .  A
C713        C718   1.414       .  A
C713        H720   1.084       .  S
C714        C715   1.410       .  A
C715        C716   1.406       .  A
C715        N722   1.433       .  S
C716        C717   1.418       .  A
C716        H721   1.081       .  S
C717        C718   1.415       .  A
C718        N719   1.430       .  S
N719        H723   1.045       .  S
N719        H724   1.045       .  S
N722        H725   1.046       .  S
N722        H726   1.045       .  S
C727        C728   1.405       .  A
C727        C732   1.405       .  A
C727        H734   1.084       .  S
C728        C729   1.420       .  A
C729        C730   1.418       .  A
C729        N736   1.431       .  S
C730        C731   1.404       .  A
C730        H735   1.083       .  S
C731        C732   1.426       .  A
C732        N733   1.432       .  S
N733        H737   1.044       .  S
N733        H738   1.044       .  S
N736        H739   1.046       .  S
N736        H740   1.045       .  S
C741        C742   1.417       .  A
C741        C746   1.399       .  A
C741        H748   1.084       .  S
C742        C743   1.402       .  A
C743        C744   1.408       .  A
C743        N750   1.430   1_455  S
C744        C745   1.413       .  A
C744        H749   1.084       .  S
C745        C746   1.404       .  A
C746        N747   1.432       .  S
N747        H751   1.045       .  S
N747        H752   1.045       .  S
N750        H753   1.043       .  S
N750        H754   1.044       .  S
C755        C756   1.412       .  A
C755        C760   1.411       .  A
C755        H762   1.084       .  S
C756        C757   1.417       .  A
C757        C758   1.402       .  A
C757        N764   1.430       .  S
C758        C759   1.407       .  A
C758        H763   1.084       .  S
C759        C760   1.410       .  A
C760        N761   1.432   1_565  S
N761        H765   1.046       .  S
N761        H766   1.046       .  S
N764        H767   1.044       .  S
N764        H768   1.042       .  S
C769        C770   1.403       .  A
C769        C774   1.410       .  A
C769        H776   1.082       .  S
C770        C771   1.418       .  A
C771        C772   1.400       .  A
C771        N778   1.433       .  S
C772        C773   1.405       .  A
C772        H777   1.084       .  S
C773        C774   1.421       .  A
C774        N775   1.431       .  S
N775        H779   1.044       .  S
N775        H780   1.046       .  S
N778        H781   1.046       .  S
N778        H782   1.043       .  S
C783        C784   1.405       .  A
C783        C788   1.410       .  A
C783        H790   1.083       .  S
C784        C785   1.415       .  A
C785        C786   1.408       .  A
C785        N792   1.432       .  S
C786        C787   1.402       .  A
C786        H791   1.084       .  S
C787        C788   1.419       .  A
C788        N789   1.432       .  S
N789        H793   1.045       .  S
N789        H794   1.045       .  S
N792        H795   1.045       .  S
N792        H796   1.046       .  S
C797        C798   1.405       .  A
C797        C802   1.399       .  A
C797        H804   1.084       .  S
C798        C799   1.417       .  A
C799        C800   1.422       .  A
C799        N806   1.431       .  S
C800        C801   1.409       .  A
C800        H805   1.083       .  S
C801        C802   1.426       .  A
C802        N803   1.432       .  S
N803        H807   1.042       .  S
N803        H808   1.045       .  S
N806        H809   1.045       .  S
N806        H810   1.046       .  S
C811        C812   1.413       .  A
C811        C816   1.411       .  A
C811        H818   1.084       .  S
C812        C813   1.416       .  A
C813        C814   1.415       .  A
C813        N820   1.432   1_554  S
C814        C815   1.410       .  A
C814        H819   1.084       .  S
C815        C816   1.416       .  A
C816        N817   1.438       .  S
N817        H821   1.045       .  S
N817        H822   1.045       .  S
N820        H823   1.046       .  S
N820        H824   1.045       .  S
C825        C826   1.416   1_556  A
C825        C830   1.403       .  A
C825        H832   1.083       .  S
C826        C827   1.404       .  A
C827        C828   1.406       .  A
C827        N834   1.431       .  S
C828        C829   1.417   1_554  A
C828        H833   1.082       .  S
C829        C830   1.403       .  A
C830        N831   1.431       .  S
N831        H835   1.046       .  S
N831        H836   1.046       .  S
N834        H837   1.045       .  S
N834        H838   1.046       .  S
C839        C840   1.400       .  A
C839        C844   1.406       .  A
C839        H846   1.084   1_545  S
C840        C841   1.412       .  A
C841        C842   1.408       .  A
C841        N848   1.432       .  S
C842        C843   1.400       .  A
C842        H847   1.084       .  S
C843        C844   1.420       .  A
C844        N845   1.430       .  S
N845        H849   1.042       .  S
N845        H850   1.046       .  S
N848        H851   1.046       .  S
N848        H852   1.045       .  S
C853        C854   1.399   1_545  A
C853        C858   1.404       .  A
C853        H860   1.084       .  S
C854        C855   1.411       .  A
C855        C856   1.405       .  A
C855        N862   1.433       .  S
C856        C857   1.406       .  A
C856        H861   1.079       .  S
C857        C858   1.426   1_565  A
C858        N859   1.430       .  S
N859        H863   1.046       .  S
N859        H864   1.046       .  S
N862        H865   1.045       .  S
N862        H866   1.047       .  S
C867        C868   1.402       .  A
C867        C872   1.400       .  A
C867        H874   1.081       .  S
C868        C869   1.414   1_554  A
C869        C870   1.411       .  A
C869        N876   1.432       .  S
C870        C871   1.405   1_556  A
C870        H875   1.084       .  S
C871        C872   1.408       .  A
C872        N873   1.429       .  S
N873        H877   1.046       .  S
N873        H878   1.046       .  S
N876        H879   1.046       .  S
N876        H880   1.046       .  S
C881        C882   1.402       .  A
C881        C886   1.404   1_554  A
C881        H888   1.078       .  S
C882        C883   1.412   1_554  A
C883        C884   1.413       .  A
C883        N890   1.433       .  S
C884        C885   1.404       .  A
C884        H889   1.081       .  S
C885        C886   1.416       .  A
C886        N887   1.432       .  S
N887        H891   1.042       .  S
N887        H892   1.047       .  S
N890        H893   1.044       .  S
N890        H894   1.042       .  S
C895        C896   1.398   1_655  A
C895        C900   1.410       .  A
C895        H902   1.084       .  S
C896        C897   1.417       .  A
C897        C898   1.405       .  A
C897        N904   1.431       .  S
C898        C899   1.402       .  A
C898        H903   1.083       .  S
C899        C900   1.431   1_455  A
C900        N901   1.436       .  S
N901        H905   1.046       .  S
N901        H906   1.044       .  S
N904        H907   1.046       .  S
N904        H908   1.045       .  S
C909        C910   1.412       .  A
C909        C914   1.408       .  A
C909        H916   1.084       .  S
C910        C911   1.406       .  A
C911        C912   1.407       .  A
C911        N918   1.432       .  S
C912        C913   1.415       .  A
C912        H917   1.084       .  S
C913        C914   1.417       .  A
C914        N915   1.432   1_545  S
N915        H919   1.046       .  S
N915        H920   1.044       .  S
N918        H921   1.046       .  S
N918        H922   1.045       .  S
C923        C924   1.413       .  A
C923        C928   1.411   1_556  A
C923        H930   1.084   1_556  S
C924        C925   1.410       .  A
C925        C926   1.403       .  A
C925        N932   1.433       .  S
C926        C927   1.416       .  A
C926        H931   1.084       .  S
C927        C928   1.406   1_556  A
C928        N929   1.431       .  S
N929        H933   1.046       .  S
N929        H934   1.046       .  S
N932        H935   1.046       .  S
N932        H936   1.044       .  S
C937        C938   1.404       .  A
C937        C942   1.410       .  A
C937        H944   1.084       .  S
C938        C939   1.416       .  A
C939        C940   1.423       .  A
C939        N946   1.431       .  S
C940        C941   1.410       .  A
C940        H945   1.083       .  S
C941        C942   1.429       .  A
C942        N943   1.431       .  S
N943        H947   1.045       .  S
N943        H948   1.043       .  S
N946        H949   1.046       .  S
N946        H950   1.045       .  S
C951        C952   1.412       .  A
C951        C956   1.405       .  A
C951        H958   1.083       .  S
C952        C953   1.413       .  A
C953        C954   1.421       .  A
C953        N960   1.430       .  S
C954        C955   1.411       .  A
C954        H959   1.083       .  S
C955        C956   1.413       .  A
C956        N957   1.432       .  S
N957        H961   1.045       .  S
N957        H962   1.046       .  S
N960        H963   1.045       .  S
N960        H964   1.046       .  S
C965        C966   1.409       .  A
C965        C970   1.416       .  A
C965        H972   1.084       .  S
C966        C967   1.413       .  A
C967        C968   1.417       .  A
C967        N974   1.432       .  S
C968        C969   1.407       .  A
C968        H973   1.083       .  S
C969        C970   1.419       .  A
C970        N971   1.431       .  S
N971        H975   1.043       .  S
N971        H976   1.045       .  S
N974        H977   1.045       .  S
N974        H978   1.046       .  S
C979        C980   1.402       .  A
C979        C984   1.399       .  A
C979        H986   1.082       .  S
C980        C981   1.419       .  A
C981        C982   1.411       .  A
C981        N988   1.432   1_556  S
C982        C983   1.404       .  A
C982        H987   1.084   1_556  S
C983        C984   1.423       .  A
C984        N985   1.432       .  S
N985        H989   1.044       .  S
N985        H990   1.043       .  S
N988        H991   1.045       .  S
N988        H992   1.046       .  S
C993        C994   1.409       .  A
C993        C998   1.408       .  A
C993       H1000   1.084       .  S
C994        C995   1.405       .  A
C995        C996   1.400       .  A
C995       N1002   1.432       .  S
C996        C997   1.414       .  A
C996       H1001   1.084       .  S
C997        C998   1.408       .  A
C998        N999   1.431   1_655  S
N999       H1003   1.046       .  S
N999       H1004   1.043       .  S
N1002      H1005   1.044       .  S
N1002      H1006   1.045       .  S
C1007      C1008   1.405       .  A
C1007      C1012   1.415       .  A
C1007      H1014   1.083       .  S
C1008      C1009   1.420       .  A
C1009      C1010   1.398       .  A
C1009      N1016   1.432       .  S
C1010      C1011   1.403       .  A
C1010      H1015   1.083       .  S
C1011      C1012   1.415       .  A
C1012      N1013   1.432       .  S
N1013      H1017   1.046       .  S
N1013      H1018   1.046       .  S
N1016      H1019   1.044       .  S
N1016      H1020   1.044       .  S
C1021      C1022   1.407       .  A
C1021      C1026   1.411       .  A
C1021      H1028   1.083       .  S
C1022      C1023   1.431       .  A
C1023      C1024   1.405       .  A
C1023      N1030   1.431       .  S
C1024      C1025   1.400       .  A
C1024      H1029   1.084       .  S
C1025      C1026   1.417       .  A
C1026      N1027   1.432       .  S
N1027      H1031   1.044       .  S
N1027      H1032   1.046       .  S
N1030      H1033   1.043       .  S
N1030      H1034   1.045       .  S
C1035      C1036   1.408       .  A
C1035      C1040   1.397       .  A
C1035      H1042   1.083       .  S
C1036      C1037   1.410   1_565  A
C1037      C1038   1.402       .  A
C1037      N1044   1.433       .  S
C1038      C1039   1.402       .  A
C1038      H1043   1.075       .  S
C1039      C1040   1.409   1_545  A
C1040      N1041   1.433       .  S
N1041      H1045   1.046       .  S
N1041      H1046   1.046       .  S
N1044      H1047   1.046       .  S
N1044      H1048   1.046       .  S
C1049      C1050   1.404       .  A
C1049      C1054   1.410       .  A
C1049      H1056   1.082       .  S
C1050      C1051   1.416       .  A
C1051      C1052   1.408       .  A
C1051      N1058   1.431       .  S
C1052      C1053   1.408       .  A
C1052      H1057   1.083       .  S
C1053      C1054   1.430       .  A
C1054      N1055   1.432       .  S
N1055      H1059   1.045       .  S
N1055      H1060   1.045       .  S
N1058      H1061   1.046       .  S
N1058      H1062   1.045       .  S
C1063      C1064   1.418       .  A
C1063      C1068   1.406       .  A
C1063      H1070   1.084       .  S
C1064      C1065   1.416       .  A
C1065      C1066   1.405       .  A
C1065      N1072   1.432       .  S
C1066      C1067   1.410       .  A
C1066      H1071   1.081       .  S
C1067      C1068   1.401       .  A
C1068      N1069   1.437       .  S
N1069      H1073   1.045       .  S
N1069      H1074   1.046       .  S
N1072      H1075   1.045       .  S
N1072      H1076   1.042       .  S
C1077      C1078   1.417       .  A
C1077      C1082   1.413       .  A
C1077      H1084   1.083       .  S
C1078      C1079   1.416       .  A
C1079      C1080   1.405       .  A
C1079      N1086   1.431       .  S
C1080      C1081   1.415       .  A
C1080      H1085   1.083       .  S
C1081      C1082   1.406       .  A
C1082      N1083   1.431       .  S
N1083      H1087   1.045       .  S
N1083      H1088   1.046       .  S
N1086      H1089   1.043       .  S
N1086      H1090   1.040       .  S
C1091      C1092   1.407       .  A
C1091      C1096   1.406       .  A
C1091      H1098   1.078       .  S
C1092      C1093   1.409       .  A
C1093      C1094   1.413       .  A
C1093      N1100   1.431       .  S
C1094      C1095   1.407       .  A
C1094      H1099   1.083       .  S
C1095      C1096   1.407       .  A
C1096      N1097   1.433       .  S
N1097      H1101   1.046       .  S
N1097      H1102   1.046       .  S
N1100      H1103   1.045       .  S
N1100      H1104   1.045       .  S
C1105      C1106   1.403       .  A
C1105      C1110   1.405       .  A
C1105      H1112   1.084       .  S
C1106      C1107   1.413       .  A
C1107      C1108   1.413       .  A
C1107      N1114   1.433       .  S
C1108      C1109   1.401       .  A
C1108      H1113   1.084       .  S
C1109      C1110   1.411       .  A
C1110      N1111   1.433       .  S
N1111      H1115   1.046       .  S
N1111      H1116   1.045       .  S
N1114      H1117   1.045       .  S
N1114      H1118   1.047       .  S
C1119      C1120   1.408       .  A
C1119      C1124   1.409       .  A
C1119      H1126   1.083       .  S
C1120      C1121   1.401       .  A
C1121      C1122   1.409       .  A
C1121      N1128   1.430       .  S
C1122      C1123   1.419       .  A
C1122      H1127   1.078       .  S
C1123      C1124   1.415       .  A
C1124      N1125   1.431       .  S
N1125      H1129   1.046       .  S
N1125      H1130   1.045       .  S
N1128      H1131   1.046       .  S
N1128      H1132   1.045       .  S
C1133      C1134   1.404       .  A
C1133      C1138   1.401       .  A
C1133      H1140   1.084       .  S
C1134      C1135   1.422       .  A
C1135      C1136   1.411       .  A
C1135      N1142   1.437       .  S
C1136      C1137   1.398       .  A
C1136      H1141   1.084       .  S
C1137      C1138   1.420       .  A
C1138      N1139   1.432       .  S
N1139      H1143   1.044       .  S
N1139      H1144   1.044       .  S
N1142      H1145   1.045       .  S
N1142      H1146   1.046       .  S
C1147      C1148   1.402       .  A
C1147      C1152   1.411       .  A
C1147      H1154   1.084       .  S
C1148      C1149   1.419       .  A
C1149      C1150   1.419       .  A
C1149      N1156   1.435       .  S
C1150      C1151   1.404       .  A
C1150      H1155   1.084       .  S
C1151      C1152   1.412       .  A
C1152      N1153   1.431       .  S
N1153      H1157   1.044       .  S
N1153      H1158   1.042       .  S
N1156      H1159   1.045       .  S
N1156      H1160   1.046       .  S
C1161      C1162   1.402       .  A
C1161      C1166   1.410       .  A
C1161      H1168   1.084       .  S
C1162      C1163   1.424       .  A
C1163      C1164   1.406       .  A
C1163      N1170   1.430       .  S
C1164      C1165   1.394       .  A
C1164      H1169   1.083       .  S
C1165      C1166   1.425       .  A
C1166      N1167   1.437       .  S
N1167      H1171   1.045       .  S
N1167      H1172   1.047       .  S
N1170      H1173   1.045       .  S
N1170      H1174   1.047       .  S
C1175      C1176   1.399       .  A
C1175      C1180   1.405       .  A
C1175      H1182   1.084       .  S
C1176      C1177   1.419       .  A
C1177      C1178   1.406       .  A
C1177      N1184   1.433       .  S
C1178      C1179   1.397       .  A
C1178      H1183   1.084       .  S
C1179      C1180   1.419       .  A
C1180      N1181   1.426       .  S
N1181      H1185   1.044       .  S
N1181      H1186   1.042       .  S
N1184      H1187   1.046       .  S
N1184      H1188   1.045       .  S
C1189      C1190   1.411       .  A
C1189      C1194   1.406       .  A
C1189      H1196   1.084       .  S
C1190      C1191   1.413       .  A
C1191      C1192   1.410       .  A
C1191      N1198   1.430       .  S
C1192      C1193   1.411       .  A
C1192      H1197   1.081       .  S
C1193      C1194   1.402       .  A
C1194      N1195   1.431       .  S
N1195      H1199   1.046       .  S
N1195      H1200   1.044       .  S
N1198      H1201   1.045       .  S
N1198      H1202   1.043       .  S
C1203      C1204   1.405       .  A
C1203      C1208   1.403       .  A
C1203      H1210   1.082       .  S
C1204      C1205   1.415       .  A
C1205      C1206   1.401       .  A
C1205      N1212   1.439       .  S
C1206      C1207   1.402       .  A
C1206      H1211   1.081       .  S
C1207      C1208   1.407       .  A
C1208      N1209   1.432       .  S
N1209      H1213   1.046       .  S
N1209      H1214   1.045       .  S
N1212      H1215   1.047       .  S
N1212      H1216   1.044       .  S
C1217      C1218   1.406       .  A
C1217      C1222   1.407       .  A
C1217      H1224   1.083       .  S
C1218      C1219   1.418       .  A
C1219      C1220   1.393       .  A
C1219      N1226   1.434       .  S
C1220      C1221   1.401       .  A
C1220      H1225   1.084       .  S
C1221      C1222   1.419       .  A
C1222      N1223   1.437       .  S
N1223      H1227   1.045       .  S
N1223      H1228   1.045       .  S
N1226      H1229   1.045   1_655  S
N1226      H1230   1.046   1_655  S
C1231      C1232   1.403       .  A
C1231      C1236   1.409       .  A
C1231      H1238   1.084       .  S
C1232      C1233   1.427       .  A
C1233      C1234   1.407       .  A
C1233      N1240   1.432       .  S
C1234      C1235   1.393       .  A
C1234      H1239   1.084       .  S
C1235      C1236   1.419       .  A
C1236      N1237   1.428       .  S
N1237      H1241   1.040       .  S
N1237      H1242   1.046       .  S
N1240      H1243   1.046       .  S
N1240      H1244   1.045       .  S
C1245      C1246   1.400       .  A
C1245      C1250   1.408       .  A
C1245      H1252   1.083       .  S
C1246      C1247   1.431       .  A
C1247      C1248   1.409       .  A
C1247      N1254   1.432       .  S
C1248      C1249   1.401       .  A
C1248      H1253   1.083       .  S
C1249      C1250   1.425       .  A
C1250      N1251   1.430       .  S
N1251      H1255   1.048       .  S
N1251      H1256   1.041       .  S
N1254      H1257   1.044       .  S
N1254      H1258   1.044       .  S
C1259      C1260   1.416       .  A
C1259      C1264   1.401       .  A
C1259      H1266   1.084       .  S
C1260      C1261   1.410       .  A
C1261      C1262   1.405       .  A
C1261      N1268   1.432       .  S
C1262      C1263   1.421       .  A
C1262      H1267   1.082       .  S
C1263      C1264   1.411       .  A
C1264      N1265   1.430       .  S
N1265      H1269   1.046       .  S
N1265      H1270   1.041       .  S
N1268      H1271   1.045       .  S
N1268      H1272   1.043       .  S
C1273      C1274   1.406       .  A
C1273      C1278   1.411       .  A
C1273      H1280   1.083       .  S
C1274      C1275   1.422       .  A
C1275      C1276   1.408       .  A
C1275      N1282   1.433       .  S
C1276      C1277   1.397       .  A
C1276      H1281   1.084       .  S
C1277      C1278   1.410       .  A
C1278      N1279   1.430       .  S
N1279      H1283   1.045       .  S
N1279      H1284   1.044       .  S
N1282      H1285   1.045       .  S
N1282      H1286   1.046       .  S
C1287      C1288   1.413       .  A
C1287      C1292   1.419       .  A
C1287      H1294   1.084       .  S
C1288      C1289   1.403       .  A
C1289      C1290   1.409       .  A
C1289      N1296   1.432       .  S
C1290      C1291   1.414       .  A
C1290      H1295   1.083       .  S
C1291      C1292   1.410       .  A
C1292      N1293   1.436       .  S
N1293      H1297   1.044       .  S
N1293      H1298   1.046       .  S
N1296      H1299   1.046       .  S
N1296      H1300   1.045       .  S
C1301      C1302   1.388       .  A
C1301      C1306   1.397       .  A
C1301      H1308   1.084       .  S
C1302      C1303   1.416       .  A
C1303      C1304   1.408       .  A
C1303      N1310   1.432   1_565  S
C1304      C1305   1.402       .  A
C1304      H1309   1.083   1_565  S
C1305      C1306   1.437       .  A
C1306      N1307   1.434       .  S
N1307      H1311   1.041       .  S
N1307      H1312   1.043       .  S
N1310      H1313   1.043       .  S
N1310      H1314   1.044       .  S
C1315      C1316   1.409       .  A
C1315      C1320   1.410       .  A
C1315      H1322   1.084       .  S
C1316      C1317   1.402       .  A
C1317      C1318   1.404       .  A
C1317      N1324   1.430   1_545  S
C1318      C1319   1.414       .  A
C1318      H1323   1.084       .  S
C1319      C1320   1.411       .  A
C1320      N1321   1.429       .  S
N1321      H1325   1.043       .  S
N1321      H1326   1.044       .  S
N1324      H1327   1.045       .  S
N1324      H1328   1.045       .  S
C1329      C1330   1.397       .  A
C1329      C1334   1.405       .  A
C1329      H1336   1.084       .  S
C1330      C1331   1.412       .  A
C1331      C1332   1.411       .  A
C1331      N1338   1.431       .  S
C1332      C1333   1.403       .  A
C1332      H1337   1.084       .  S
C1333      C1334   1.420       .  A
C1334      N1335   1.432       .  S
N1335      H1339   1.046       .  S
N1335      H1340   1.043       .  S
N1338      H1341   1.045       .  S
N1338      H1342   1.044       .  S
C1343      C1344   1.418       .  A
C1343      C1348   1.412       .  A
C1343      H1350   1.082       .  S
C1344      C1345   1.405       .  A
C1345      C1346   1.408       .  A
C1345      N1352   1.431       .  S
C1346      C1347   1.413       .  A
C1346      H1351   1.082       .  S
C1347      C1348   1.408       .  A
C1348      N1349   1.437       .  S
N1349      H1353   1.044       .  S
N1349      H1354   1.045       .  S
N1352      H1355   1.046       .  S
N1352      H1356   1.045       .  S
C1357      C1358   1.400       .  A
C1357      C1362   1.406       .  A
C1357      H1364   1.083   1_565  S
C1358      C1359   1.424       .  A
C1359      C1360   1.412       .  A
C1359      N1366   1.438       .  S
C1360      C1361   1.397       .  A
C1360      H1365   1.084       .  S
C1361      C1362   1.426       .  A
C1362      N1363   1.434   1_565  S
N1363      H1367   1.041       .  S
N1363      H1368   1.045   1_545  S
N1366      H1369   1.046       .  S
N1366      H1370   1.045       .  S
C1371      C1372   1.401       .  A
C1371      C1376   1.405       .  A
C1371      H1378   1.084       .  S
C1372      C1373   1.414       .  A
C1373      C1374   1.408       .  A
C1373      N1380   1.431       .  S
C1374      C1375   1.399       .  A
C1374      H1379   1.084       .  S
C1375      C1376   1.419       .  A
C1376      N1377   1.433       .  S
N1377      H1381   1.044       .  S
N1377      H1382   1.045       .  S
N1380      H1383   1.043       .  S
N1380      H1384   1.046       .  S
C1385      C1386   1.415       .  A
C1385      C1390   1.410       .  A
C1385      H1392   1.082       .  S
C1386      C1387   1.420       .  A
C1387      C1388   1.402       .  A
C1387      N1394   1.432       .  S
C1388      C1389   1.411       .  A
C1388      H1393   1.084       .  S
C1389      C1390   1.407       .  A
C1390      N1391   1.431       .  S
N1391      H1395   1.046       .  S
N1391      H1396   1.045       .  S
N1394      H1397   1.044       .  S
N1394      H1398   1.043       .  S
