geometry optimzed in LAMMPS
_audit_creation_date              2020-11-30 
_audit_creation_method            'lammps2cif' 
_symmetry_space_group_name_H-M    'P1' 
_symmetry_Int_Tables_number       1 
_symmetry_cell_setting            triclinic 
loop_ 
_symmetry_equiv_pos_as_xyz 
  x,y,z 
_cell_length_a                    33.70084154 
_cell_length_b                    33.80534470778985 
_cell_length_c                    38.38329737851535 
_cell_angle_alpha                 90.18367398778231 
_cell_angle_beta                  90.1315371029441 
_cell_angle_gamma                 90.00478298358573 
loop_ 
_atom_site_label 
_atom_site_type_symbol 
_atom_site_fract_x 
_atom_site_fract_y 
_atom_site_fract_z 
_atom_site_charge 
N1          N  0.49840698  0.43444635  0.77869785    -0.36600
N2          N  0.43933249  0.49725209  0.77932508    -0.57200
N3          N  0.49895845  0.55994644  0.77780379    -0.36600
N4          N  0.55804503  0.49741505  0.77779045    -0.57200
C5          C  0.46577768  0.41477650  0.76730651     0.27000
C6          C  0.53041290  0.41497728  0.76593729     0.27000
C7          C  0.46644929  0.57926141  0.76582712     0.27000
C8          C  0.53113426  0.57935979  0.76535321     0.27000
C9          C  0.41554866  0.46534912  0.78303163     0.35600
C10         C  0.41578848  0.52942231  0.78237201     0.35600
C11         C  0.58160761  0.46527906  0.78062152     0.35600
C12         C  0.58206156  0.52930046  0.78046023     0.35600
C13         C  0.47728162  0.38139381  0.74882638    -0.21900
C14         C  0.51794858  0.38160695  0.74782935    -0.21900
C15         C  0.47818039  0.61218913  0.74699264    -0.21900
C16         C  0.51887427  0.61224397  0.74668594    -0.21900
C17         C  0.37705565  0.47731962  0.79001141    -0.22900
C18         C  0.37720815  0.51793942  0.78962246    -0.22900
C19         C  0.62049179  0.47680950  0.78680521    -0.22900
C20         C  0.62078301  0.51740182  0.78665368    -0.22900
C21         C  0.42589734  0.42708199  0.77145095    -0.18300
C22         C  0.57047991  0.42723357  0.76896284    -0.18300
C23         C  0.57121927  0.56745951  0.76911567    -0.18300
C24         C  0.42647670  0.56733778  0.77029245    -0.18300
H25         H  0.45838910  0.35981353  0.73613756     0.14600
H26         H  0.53606751  0.36021786  0.73416130     0.14600
H27         H  0.45945860  0.63340427  0.73378033     0.14600
H28         H  0.53720585  0.63346803  0.73314105     0.14600
H29         H  0.35106616  0.45868788  0.79224696     0.12900
H30         H  0.35134579  0.53680612  0.79152010     0.12900
H31         H  0.64638666  0.45792450  0.78824185     0.12900
H32         H  0.64691574  0.53597298  0.78801541     0.12900
H33         H  0.49885384  0.45927162  0.79483625     0.26200
H34         H  0.49915410  0.53561990  0.79438920     0.26200
N35         N  0.49592895  0.56170932  0.92552048    -0.36600
N36         N  0.55531157  0.49912099  0.92538391    -0.57200
N37         N  0.49556798  0.43641948  0.92700425    -0.36600
N38         N  0.43624379  0.49895310  0.92625853    -0.57200
C39         C  0.52840567  0.58183461  0.93666888     0.27000
C40         C  0.46369242  0.58166845  0.93724470     0.27000
C41         C  0.52807560  0.41705444  0.93893606     0.27000
C42         C  0.46337015  0.41709043  0.93954299     0.27000
C43         C  0.57919105  0.53105285  0.92236251     0.35600
C44         C  0.57895614  0.46697016  0.92277360     0.35600
C45         C  0.41258755  0.53098183  0.92313768     0.35600
C46         C  0.41232858  0.46697568  0.92401600     0.35600
C47         C  0.51658550  0.61601168  0.95382223    -0.21900
C48         C  0.47586566  0.61587885  0.95423745    -0.21900
C49         C  0.51632907  0.38405498  0.95766618    -0.21900
C50         C  0.47561192  0.38410305  0.95808547    -0.21900
C51         C  0.61790739  0.51912068  0.91629966    -0.22900
C52         C  0.61774718  0.47851667  0.91647697    -0.22900
C53         C  0.37372166  0.51927020  0.91718662    -0.22900
C54         C  0.37355559  0.47867266  0.91775937    -0.22900
C55         C  0.56840578  0.56946392  0.93330831    -0.18300
C56         C  0.42364892  0.56918184  0.93439505    -0.18300
C57         C  0.42327897  0.42911146  0.93595768    -0.18300
C58         C  0.56807113  0.42905370  0.93469977    -0.18300
H59         H  0.53530384  0.63819897  0.96588210     0.14600
H60         H  0.45744947  0.63796030  0.96670577     0.14600
H61         H  0.53510240  0.36275130  0.97072611     0.14600
H62         H  0.45723099  0.36286529  0.97157221     0.14600
H63         H  0.64396772  0.53774800  0.91472162     0.12900
H64         H  0.64368631  0.45968975  0.91513322     0.12900
H65         H  0.34777822  0.53807128  0.91561834     0.12900
H66         H  0.34747541  0.46000551  0.91668185     0.12900
H67         H  0.49573421  0.53625977  0.91018204     0.26200
H68         H  0.49539992  0.46080836  0.91049806     0.26200
N69         N  0.49417981  0.12717382  0.40480041    -0.36600
N70         N  0.55568080  0.12962897  0.35121570    -0.57200
N71         N  0.49674073  0.11998353  0.29644052    -0.36600
N72         N  0.43519623  0.12177167  0.35043443    -0.57200
C73         C  0.52545184  0.14086910  0.42341713     0.27000
C74         C  0.46096634  0.13639423  0.42291383     0.27000
C75         C  0.52877903  0.13167149  0.27784027     0.27000
C76         C  0.46410296  0.12944476  0.27757128     0.27000
C77         C  0.57861364  0.12714648  0.38013593     0.35600
C78         C  0.57984566  0.12262416  0.32373177     0.35600
C79         C  0.41151759  0.11609724  0.37841054     0.35600
C80         C  0.41306509  0.11321810  0.32199609     0.35600
C81         C  0.51199847  0.15846297  0.45389200    -0.21900
C82         C  0.47137086  0.15569609  0.45355278    -0.21900
C83         C  0.51636674  0.14801569  0.24656092    -0.21900
C84         C  0.47562147  0.14672615  0.24643186    -0.21900
C85         C  0.61732699  0.11813105  0.37099936    -0.22900
C86         C  0.61808504  0.11515766  0.33530211    -0.22900
C87         C  0.37444856  0.10310346  0.36774445    -0.22900
C88         C  0.37544074  0.10122433  0.33197037    -0.22900
C89         C  0.56589555  0.13664802  0.41429710    -0.18300
C90         C  0.42157324  0.12714436  0.41288298    -0.18300
C91         C  0.42423257  0.12242842  0.28748028    -0.18300
C92         C  0.56890859  0.12797448  0.28840193    -0.18300
H93         H  0.52955413  0.17223089  0.47422338     0.14600
H94         H  0.45179604  0.16700612  0.47354847     0.14600
H95         H  0.53464772  0.16047454  0.22621495     0.14600
H96         H  0.45671154  0.15790108  0.22587909     0.14600
H97         H  0.64257893  0.11490447  0.38822431     0.12900
H98         H  0.64406153  0.10932649  0.31957500     0.12900
H99         H  0.34897382  0.09699666  0.38397969     0.12900
H100        H  0.35079634  0.09358777  0.31511141     0.12900
H101        H  0.49573722  0.10946045  0.38263219     0.26200
H102        H  0.49721872  0.10397696  0.31957114     0.26200
N103        N  0.87426555  0.49705302  0.29878892    -0.36600
N104        N  0.87153721  0.55652022  0.35265619    -0.57200
N105        N  0.87631731  0.49537672  0.40697944    -0.36600
N106        N  0.87653386  0.43600982  0.35287130    -0.57200
C107        C  0.86126549  0.52901983  0.28077614     0.27000
C108        C  0.86205437  0.46451411  0.28111315     0.27000
C109        C  0.86318821  0.52719807  0.42515831     0.27000
C110        C  0.86595478  0.46262966  0.42523017     0.27000
C111        C  0.87745714  0.58010384  0.32463837     0.35600
C112        C  0.87769539  0.57920274  0.38126506     0.35600
C113        C  0.88178286  0.41334656  0.32419346     0.35600
C114        C  0.88315628  0.41239843  0.38067659     0.35600
C115        C  0.84063448  0.51659192  0.25144209    -0.21900
C116        C  0.84115776  0.47597593  0.25162622    -0.21900
C117        C  0.84456307  0.51449154  0.45533002    -0.21900
C118        C  0.84644503  0.47387278  0.45543392    -0.21900
C119        C  0.88836320  0.61768006  0.33552799    -0.22900
C120        C  0.88836494  0.61715624  0.37136772    -0.22900
C121        C  0.89298359  0.37543040  0.33378188    -0.22900
C122        C  0.89379895  0.37482086  0.36960703    -0.22900
C123        C  0.86833561  0.56909382  0.28983060    -0.18300
C124        C  0.87028581  0.42474962  0.29021895    -0.18300
C125        C  0.87366762  0.42286519  0.41537866    -0.18300
C126        C  0.86873176  0.56741973  0.41579891    -0.18300
H127        H  0.82618398  0.53482637  0.23208115     0.14600
H128        H  0.82728746  0.45707387  0.23232431     0.14600
H129        H  0.83058516  0.53253311  0.47513816     0.14600
H130        H  0.83414231  0.45482017  0.47526934     0.14600
H131        H  0.89443502  0.64315099  0.31938931     0.12900
H132        H  0.89436574  0.64218508  0.38822537     0.12900
H133        H  0.89800724  0.35032637  0.31678257     0.12900
H134        H  0.89964978  0.34920208  0.38566292     0.12900
H135        H  0.89334852  0.49738902  0.32018651     0.26200
H136        H  0.89407109  0.49623632  0.38481487     0.26200
N137        N  0.49559648  0.86770713  0.29581476    -0.36600
N138        N  0.43705414  0.86747448  0.35100735    -0.57200
N139        N  0.49886883  0.86629610  0.40336570    -0.36600
N140        N  0.55755169  0.86406298  0.34846421    -0.57200
C141        C  0.46240762  0.85696587  0.27823480     0.27000
C142        C  0.52702209  0.85556104  0.27667205     0.27000
C143        C  0.46685115  0.85458467  0.42185694     0.27000
C144        C  0.53133598  0.85310565  0.42051548     0.27000
C145        C  0.41340164  0.87523378  0.32343457     0.35600
C146        C  0.41529447  0.87485966  0.37980446     0.35600
C147        C  0.57984872  0.87036711  0.31980143     0.35600
C148        C  0.58159425  0.86997179  0.37625242     0.35600
C149        C  0.47291248  0.83805534  0.24747111    -0.21900
C150        C  0.51366350  0.83724089  0.24645566    -0.21900
C151        C  0.47910411  0.83364729  0.45097448    -0.21900
C152        C  0.51982931  0.83266085  0.45009921    -0.21900
C153        C  0.37670438  0.88855040  0.33472381    -0.22900
C154        C  0.37790856  0.88829459  0.37055548    -0.22900
C155        C  0.61809119  0.88094320  0.32940149    -0.22900
C156        C  0.61915910  0.88083628  0.36521993    -0.22900
C157        C  0.42298450  0.86511034  0.28875146    -0.18300
C158        C  0.56739092  0.86150736  0.28545668    -0.18300
C159        C  0.57103706  0.86083198  0.41094059    -0.18300
C160        C  0.42700163  0.86365961  0.41367370    -0.18300
H161        H  0.45332773  0.82579250  0.22783945     0.14600
H162        H  0.53136182  0.82423980  0.22590600     0.14600
H163        H  0.46067554  0.82031675  0.47078126     0.14600
H164        H  0.53877291  0.81841578  0.46909449     0.14600
H165        H  0.35127375  0.89610096  0.31881138     0.12900
H166        H  0.35358954  0.89550002  0.38781437     0.12900
H167        H  0.64290990  0.88689379  0.31235415     0.12900
H168        H  0.64496041  0.88673875  0.38124736     0.12900
H169        H  0.49678255  0.88539505  0.31805758     0.26200
H170        H  0.49873284  0.88556987  0.38223157     0.26200
N171        N  0.12328035  0.49938886  0.40589086    -0.36600
N172        N  0.12628026  0.55816244  0.35122463    -0.57200
N173        N  0.12533119  0.49691842  0.29787830    -0.36600
N174        N  0.12520459  0.43811462  0.35247331    -0.57200
C175        C  0.13512777  0.53176273  0.42393545     0.27000
C176        C  0.13414729  0.46741870  0.42473364     0.27000
C177        C  0.13773915  0.52870742  0.27955901     0.27000
C178        C  0.13703635  0.46426355  0.28016699     0.27000
C179        C  0.11999159  0.58195276  0.37902424     0.35600
C180        C  0.12033650  0.58061430  0.32264381     0.35600
C181        C  0.11781490  0.41587852  0.38094002     0.35600
C182        C  0.11879344  0.41453688  0.32448392     0.35600
C183        C  0.15328786  0.52022805  0.45474821    -0.21900
C184        C  0.15264551  0.47962184  0.45526232    -0.21900
C185        C  0.15746112  0.51610122  0.24982191    -0.21900
C186        C  0.15695377  0.47543375  0.25017754    -0.21900
C187        C  0.10927115  0.61949005  0.36811883    -0.22900
C188        C  0.10932317  0.61860540  0.33233543    -0.22900
C189        C  0.10602407  0.37823095  0.37102160    -0.22900
C190        C  0.10649019  0.37741813  0.33519835    -0.22900
C191        C  0.12896199  0.57141910  0.41370243    -0.18300
C192        C  0.12691786  0.42757660  0.41541830    -0.18300
C193        C  0.12901063  0.42473923  0.28994815    -0.18300
C194        C  0.13039136  0.56871055  0.28846415    -0.18300
H195        H  0.16609607  0.53902961  0.47468614     0.14600
H196        H  0.16482782  0.46123984  0.47568932     0.14600
H197        H  0.17104064  0.53424996  0.22996688     0.14600
H198        H  0.17007176  0.45633092  0.23067409     0.14600
H199        H  0.10343728  0.64514480  0.38425414     0.12900
H200        H  0.10353817  0.64349992  0.31540823     0.12900
H201        H  0.09910990  0.35359452  0.38789130     0.12900
H202        H  0.09999572  0.35201313  0.31893233     0.12900
H203        H  0.10579585  0.49914816  0.38348587     0.26200
H204        H  0.10669850  0.49751799  0.31948448     0.26200
Zr205      Zr  0.23277026  0.23215317  0.16076411     2.17500
O206        O  0.24946771  0.24010940  0.22235703    -0.51300
O207        O  0.18188531  0.18608944  0.17969304    -0.74500
O208        O  0.19464840  0.28366711  0.19036170    -0.81300
O209        O  0.32290543  0.16426854  0.14949241    -0.83100
O210        O  0.16214479  0.32107113  0.15056934    -0.78700
O211        O  0.28336795  0.19318474  0.19007978    -0.90300
O212        O  0.15483358  0.15318218  0.13400828    -0.76300
O213        O  0.17717154  0.23560604  0.12277996    -0.85800
O214        O  0.23841082  0.17709289  0.12217521    -0.85500
O215        O  0.23996560  0.29520971  0.13244710    -0.72200
O216        O  0.29560209  0.23989580  0.13203088    -0.84400
Zr217      Zr  0.25065725  0.25229756  0.02412102     2.26400
Zr218      Zr  0.18403552  0.29764608  0.09375013     2.06300
Zr219      Zr  0.29994169  0.18561471  0.09225381     2.10000
Zr220      Zr  0.18376067  0.18171279  0.08308823     1.78800
O221        O  0.37165699  0.19370547  0.08844819    -0.93200
O222        O  0.11215739  0.19040347  0.07798132    -0.41000
O223        O  0.24497478  0.18963650  0.05300973    -0.77600
O224        O  0.18808055  0.24324495  0.05339313    -0.96300
O225        O  0.24551807  0.30668949  0.06343973    -0.89600
O226        O  0.30665703  0.24722444  0.06201790    -0.92400
C227        C  0.15810152  0.16036581  0.16652726     1.01300
C228        C  0.31281152  0.17125339  0.18119297     1.14300
C229        C  0.17127824  0.31219544  0.18208119     1.08600
O230        O  0.11186145  0.29561260  0.09604371    -0.94600
O231        O  0.15770015  0.31661464  0.03775726    -0.90300
O232        O  0.19778695  0.29031169  0.99614486    -0.83500
C233        C  0.16743684  0.31042350  0.00594971     1.11700
O234        O  0.32608466  0.32301615  0.15818312    -0.96600
Zr235      Zr  0.30114312  0.30134353  0.10152189     1.88900
O236        O  0.29763481  0.30167320  0.00277006    -0.73200
O237        O  0.18538569  0.36960755  0.09126827    -0.52500
O238        O  0.29303126  0.37268493  0.10731468    -0.97100
O239        O  0.37302281  0.29307676  0.10419879    -0.54400
O240        O  0.32467211  0.33319002  0.04931535    -0.73700
C241        C  0.32016414  0.32817915  0.01644792     0.98600
O242        O  0.24175275  0.23723923  0.96232547    -0.62500
O243        O  0.30640828  0.11379688  0.09179667    -0.57300
O244        O  0.28546733  0.19889019  0.99433773    -0.94000
O245        O  0.31214950  0.15794699  0.03506392    -0.92500
O246        O  0.19505958  0.11078131  0.07846126    -0.92800
O247        O  0.16026104  0.15616638  0.02736745    -0.91600
C248        C  0.30491186  0.16791359  0.00346748     1.17500
H249        H  0.23810625  0.15235629  0.13474910     0.33400
H250        H  0.16607610  0.24294386  0.03723404     0.44300
H251        H  0.33105492  0.24805067  0.04880527     0.37800
H252        H  0.23949626  0.31689524  0.14886454     0.34300
H253        H  0.10132808  0.16319574  0.07678976     0.26100
H254        H  0.15762041  0.37772001  0.09574256     0.32000
H255        H  0.27224282  0.37965995  0.09013986     0.37900
H256        H  0.22199905  0.10838243  0.06843735     0.32400
H257        H  0.33455202  0.10871301  0.09774375     0.31200
H258        H  0.37804526  0.18974838  0.06351267     0.32900
H259        H  0.38374536  0.32031912  0.10316113     0.31900
H260        H  0.18326669  0.15885660  0.01154492     0.35900
H261        H  0.21385621  0.22847017  0.95971003     0.28600
H262        H  0.22422872  0.23745595  0.23531691     0.32800
H263        H  0.34208838  0.34701968  0.15371530     0.35700
H264        H  0.29129788  0.10451815  0.11229265     0.28300
H265        H  0.24333801  0.26283068  0.94991171     0.41200
H266        H  0.10562356  0.27592095  0.11426393     0.31200
H267        H  0.10355201  0.20045252  0.10101764     0.38900
H268        H  0.38064701  0.28116132  0.08160310     0.30700
H269        H  0.20007159  0.37787756  0.11244110     0.30800
H270        H  0.25753144  0.26809245  0.22533893     0.31000
Zr271      Zr  0.24925338  0.74411476  0.02306764     2.17500
O272        O  0.23223202  0.75431898  0.96191541    -0.51300
O273        O  0.29595141  0.69482240  0.00119975    -0.74500
O274        O  0.28919818  0.79567669  0.99495525    -0.81300
O275        O  0.15489316  0.68399605  0.03513035    -0.83100
O276        O  0.31764944  0.83403935  0.03682918    -0.78700
O277        O  0.19368887  0.71194206  0.99361051    -0.90300
O278        O  0.32235390  0.66324294  0.04782226    -0.76300
O279        O  0.30414248  0.74816397  0.06215174    -0.85800
O280        O  0.24305303  0.68877015  0.06144320    -0.85500
O281        O  0.24200013  0.80674410  0.05242122    -0.72200
O282        O  0.18685244  0.75068518  0.05246959    -0.84400
Zr283      Zr  0.22921473  0.76392120  0.15979354     2.26400
Zr284      Zr  0.29657369  0.80962418  0.09287966     2.06300
Zr285      Zr  0.18192699  0.69677110  0.09235939     2.10000
Zr286      Zr  0.29758662  0.69346052  0.10056719     1.78800
O287        O  0.10984655  0.69636912  0.09719863    -0.93200
O288        O  0.36907088  0.70418952  0.10198663    -0.41000
O289        O  0.23662235  0.70053554  0.13198630    -0.77600
O290        O  0.29226801  0.75464249  0.13178575    -0.96300
O291        O  0.23415951  0.81837896  0.12124202    -0.89600
O292        O  0.17393370  0.75879822  0.12136837    -0.92400
C293        C  0.31856608  0.66856270  0.01494213     1.01300
C294        C  0.16318011  0.69204184  0.00331534     1.14300
C295        C  0.31052970  0.82523218  0.00490072     1.05000
O296        O  0.36873800  0.80531976  0.09252221    -0.94600
O297        O  0.31939271  0.83202275  0.14991072    -0.90300
O298        O  0.28033142  0.80173527  0.18973629    -0.83500
C299        C  0.30958215  0.82409635  0.18144943     1.11700
O300        O  0.15467422  0.83410467  0.02523717    -0.96600
Zr301      Zr  0.17993457  0.81240801  0.08156565     1.88900
O302        O  0.17758070  0.80969611  0.17792894    -0.73200
O303        O  0.29529785  0.88150577  0.09644197    -0.52500
O304        O  0.19019919  0.88329997  0.07468343    -0.97100
O305        O  0.10887961  0.80070858  0.07506851    -0.54400
O306        O  0.15096063  0.84232052  0.13201626    -0.73700
C307        C  0.15388395  0.83520225  0.16454663     0.98600
O308        O  0.24052427  0.76398964  0.22264495    -0.62500
O309        O  0.18297434  0.62496493  0.08663459    -0.57300
O310        O  0.19733538  0.70895692  0.18907156    -0.94000
O311        O  0.16421438  0.67148191  0.14957058    -0.92500
O312        O  0.28674568  0.62280656  0.10884435    -0.92800
O313        O  0.32727950  0.66718807  0.15360117    -0.91600
C314        C  0.17464504  0.67991279  0.18094442     1.17500
H315        H  0.24292615  0.66411029  0.04864387     0.33400
H316        H  0.31379127  0.75489540  0.14845179     0.44300
H317        H  0.14904825  0.75920178  0.13374529     0.37800
H318        H  0.24254482  0.82857461  0.03629144     0.34300
H319        H  0.38073983  0.67766747  0.09806200     0.26100
H320        H  0.32256551  0.88986474  0.09035038     0.32000
H321        H  0.20069714  0.89242406  0.09744392     0.37900
H322        H  0.26999936  0.61440628  0.08894091     0.32400
H323        H  0.19704487  0.61553551  0.10770059     0.31200
H324        H  0.10164315  0.66980448  0.08896400     0.32900
H325        H  0.09897877  0.79541585  0.09886089     0.31900
H326        H  0.30464178  0.66300422  0.16958100     0.35900
H327        H  0.21397189  0.76284954  0.23359534     0.28600
H328        H  0.25691598  0.74921611  0.94869355     0.32800
H329        H  0.13563858  0.85561102  0.03048931     0.35700
H330        H  0.15508740  0.61670570  0.09016917     0.28300
H331        H  0.25326013  0.73832879  0.22804194     0.41200
H332        H  0.37577471  0.79223497  0.11473999     0.31200
H333        H  0.37505022  0.71888899  0.08035402     0.38900
H334        H  0.10698165  0.77486132  0.06296717     0.30700
H335        H  0.27873832  0.88994356  0.07647036     0.30800
H336        H  0.22709805  0.78300679  0.95933145     0.31000
Zr337      Zr  0.23502824  0.76074500  0.54330677     2.17500
O338        O  0.25117036  0.75229159  0.48172366    -0.51300
O339        O  0.18737102  0.80958662  0.52291798    -0.74500
O340        O  0.19568950  0.71074911  0.51378140    -0.81300
O341        O  0.32689683  0.82643029  0.55453248    -0.83100
O342        O  0.16482998  0.67193448  0.55344247    -0.78700
O343        O  0.28923481  0.79461896  0.51425955    -0.90300
O344        O  0.15401267  0.83655315  0.56824011    -0.76300
O345        O  0.17900936  0.75654605  0.58073255    -0.85800
O346        O  0.23962033  0.81614194  0.58132466    -0.85500
O347        O  0.24216181  0.69793881  0.57213920    -0.72200
O348        O  0.29735382  0.75273386  0.57263342    -0.84400
Zr349      Zr  0.25175808  0.74196737  0.68045604     2.26400
Zr350      Zr  0.18629825  0.69485930  0.61058853     2.06300
Zr351      Zr  0.30105974  0.80764064  0.61139773     2.10000
Zr352      Zr  0.18465120  0.81097752  0.61993852     1.78800
O353        O  0.37300022  0.80181996  0.61447046    -0.93200
O354        O  0.11397538  0.79958079  0.62877533    -0.41000
O355        O  0.24591486  0.80417256  0.65066955    -0.77600
O356        O  0.18962397  0.74987843  0.65016979    -0.96300
O357        O  0.24732329  0.68667121  0.64190221    -0.89600
O358        O  0.30791146  0.74676265  0.64282970    -0.92400
C359        C  0.16083643  0.83266379  0.53568844     1.01300
C360        C  0.31842153  0.81703774  0.52292485     1.14300
C361        C  0.17308114  0.68177032  0.52199878     1.05000
O362        O  0.11410796  0.69288549  0.60868570    -0.94600
O363        O  0.16000317  0.67636445  0.66685645    -0.90300
O364        O  0.19949618  0.70352141  0.70868927    -0.83500
C365        C  0.16933384  0.68301619  0.69877380     1.11700
O366        O  0.33135305  0.66861374  0.54947939    -0.96600
Zr367      Zr  0.30288991  0.69193428  0.60408035     1.88900
O368        O  0.30046546  0.69514924  0.70338267    -0.73200
O369        O  0.19116922  0.62303349  0.61285418    -0.52500
O370        O  0.29311968  0.62130057  0.59479064    -0.97100
O371        O  0.37486125  0.69972062  0.60320362    -0.54400
O372        O  0.32551177  0.66126659  0.65736970    -0.73700
C373        C  0.32211015  0.66770175  0.69016310     0.98600
O374        O  0.23375279  0.75028740  0.74161662    -0.62500
O375        O  0.30327446  0.87969642  0.60991601    -0.57300
O376        O  0.28527006  0.79760797  0.70894060    -0.94000
O377        O  0.31560737  0.83497972  0.66774285    -0.92500
O378        O  0.19341186  0.88240397  0.62194933    -0.92800
O379        O  0.16137015  0.83992480  0.67434190    -0.91600
C380        C  0.30636421  0.82730655  0.69933661     1.17500
H381        H  0.23932093  0.84077747  0.56863567     0.33400
H382        H  0.16755105  0.75002855  0.66616718     0.44300
H383        H  0.33232973  0.74648639  0.65606170     0.37800
H384        H  0.24181165  0.67633640  0.55563574     0.34300
H385        H  0.10156992  0.82596850  0.62621975     0.26100
H386        H  0.16382355  0.61360582  0.60827355     0.32000
H387        H  0.27975493  0.61191976  0.61617187     0.37900
H388        H  0.22134388  0.88618583  0.62926907     0.32400
H389        H  0.33190463  0.88627714  0.61029375     0.31200
H390        H  0.38006858  0.78416504  0.59480349     0.32900
H391        H  0.38534463  0.67236388  0.60251874     0.31900
H392        H  0.18027009  0.83024343  0.69216920     0.35900
H393        H  0.25896133  0.74923760  0.75489040     0.28600
H394        H  0.22604060  0.75594661  0.46869436     0.32800
H395        H  0.32106787  0.68713196  0.53167146     0.35700
H396        H  0.29424983  0.88718090  0.58627915     0.28300
H397        H  0.22421864  0.77786889  0.74403228     0.41200
H398        H  0.10659144  0.71231685  0.59059704     0.31200
H399        H  0.10523934  0.78476530  0.60783728     0.38900
H400        H  0.38218849  0.70950750  0.62668043     0.30700
H401        H  0.20618267  0.61559267  0.59168480     0.30800
H402        H  0.25823047  0.72405575  0.47866648     0.31000
Zr403      Zr  0.25133728  0.25283980  0.68014196     2.17500
O404        O  0.23146366  0.23799694  0.73983596    -0.51300
O405        O  0.29876178  0.30129988  0.70278435    -0.74500
O406        O  0.29151739  0.20198303  0.70837463    -0.81300
O407        O  0.15573650  0.31326229  0.66878869    -0.83100
O408        O  0.31690885  0.16116998  0.66684163    -0.78700
O409        O  0.19937427  0.29025865  0.70931942    -0.90300
O410        O  0.32445021  0.33369667  0.65641555    -0.76300
O411        O  0.30603043  0.24825414  0.64102930    -0.85800
O412        O  0.24483586  0.30821045  0.64219615    -0.85500
O413        O  0.24297612  0.19057242  0.65046358    -0.72200
O414        O  0.18845186  0.24611257  0.65131121    -0.84400
Zr415      Zr  0.23075134  0.23409824  0.54336491     2.26400
Zr416      Zr  0.29760161  0.18669870  0.61030292     2.06300
Zr417      Zr  0.18322576  0.30032182  0.61163468     2.10000
Zr418      Zr  0.29923473  0.30367594  0.60330456     1.78800
O419        O  0.11108567  0.30019955  0.60785990    -0.93200
O420        O  0.37131502  0.29893152  0.60003140    -0.41000
O421        O  0.23794549  0.29688587  0.57207912    -0.77600
O422        O  0.29372533  0.24242354  0.57215298    -0.96300
O423        O  0.23512938  0.17905180  0.58144739    -0.89600
O424        O  0.17536984  0.23889253  0.58141651    -0.92400
C425        C  0.32105306  0.32799912  0.68931234     1.01300
C426        C  0.16731089  0.30813495  0.70033980     1.14300
C427        C  0.31111534  0.17127389  0.69870807     1.05000
O428        O  0.36973853  0.18872712  0.61298709    -0.94600
O429        O  0.32105419  0.16611188  0.55251385    -0.90300
O430        O  0.28199415  0.19713524  0.51288668    -0.83500
C431        C  0.31128444  0.17465228  0.52093013     1.11700
O432        O  0.15556517  0.15516348  0.67420645    -0.96600
Zr433      Zr  0.18093205  0.18505549  0.62097931     1.88900
O434        O  0.18200511  0.18537903  0.52415008    -0.73200
O435        O  0.29451633  0.11483657  0.60599504    -0.52500
O436        O  0.19164434  0.11389270  0.62516792    -0.97100
O437        O  0.11079996  0.20044882  0.62905668    -0.54400
O438        O  0.15087124  0.15719165  0.57011575    -0.73700
C439        C  0.15685485  0.16127233  0.53754955     0.98600
O440        O  0.24435522  0.23997378  0.48121062    -0.62500
O441        O  0.18716836  0.37195827  0.61767914    -0.57300
O442        O  0.19617605  0.28853816  0.51507008    -0.94000
O443        O  0.16393655  0.32624685  0.55490172    -0.92500
O444        O  0.28359477  0.37341012  0.59555589    -0.92800
O445        O  0.32758649  0.32880730  0.54941178    -0.91600
C446        C  0.17380697  0.31776282  0.52343965     1.17500
H447        H  0.24501183  0.33278745  0.65500681     0.33400
H448        H  0.31534914  0.24224983  0.55570637     0.44300
H449        H  0.15066935  0.23858024  0.56866420     0.37800
H450        H  0.24320602  0.16885568  0.66669702     0.34300
H451        H  0.38085540  0.32656652  0.60197538     0.26100
H452        H  0.32251701  0.10608854  0.60735153     0.32000
H453        H  0.16664422  0.10162786  0.61688501     0.37900
H454        H  0.30765590  0.38765206  0.60350538     0.32400
H455        H  0.19933012  0.38119590  0.59570524     0.31200
H456        H  0.10363172  0.32844518  0.60601795     0.32900
H457        H  0.10094959  0.20854895  0.60583589     0.31900
H458        H  0.31023456  0.31803198  0.53081466     0.35900
H459        H  0.21835375  0.24095663  0.46917555     0.28600
H460        H  0.25530883  0.24235603  0.75448638     0.32800
H461        H  0.13200249  0.13961338  0.66700533     0.35700
H462        H  0.15929514  0.38108724  0.61635575     0.28300
H463        H  0.25633528  0.26646186  0.47806736     0.41200
H464        H  0.37695747  0.21367355  0.60115104     0.31200
H465        H  0.37941947  0.28653902  0.62227578     0.38900
H466        H  0.11053768  0.22508730  0.64307360     0.30700
H467        H  0.28254546  0.10597897  0.62817365     0.30800
H468        H  0.22649390  0.20913173  0.74055822     0.31000
Zr469      Zr  0.76557728  0.76275121  0.15835485     2.17500
O470        O  0.75462615  0.76221420  0.22116330    -0.51300
O471        O  0.81372463  0.81215159  0.17667800    -0.74500
O472        O  0.80196589  0.71025628  0.18845808    -0.81300
O473        O  0.67306906  0.82878759  0.14708643    -0.83100
O474        O  0.83399079  0.67219202  0.14878212    -0.78700
O475        O  0.70883118  0.79384209  0.18651714    -0.90300
O476        O  0.84275188  0.84253234  0.13083244    -0.76300
O477        O  0.82065259  0.75769850  0.11992805    -0.85800
O478        O  0.76077285  0.81785564  0.12006079    -0.85500
O479        O  0.75693884  0.69958163  0.13033478    -0.72200
O480        O  0.70292854  0.75588196  0.12929008    -0.84400
Zr481      Zr  0.74550052  0.74332449  0.02159412     2.26400
Zr482      Zr  0.81203236  0.69525777  0.09112237     2.06300
Zr483      Zr  0.69892143  0.81059787  0.09017964     2.10000
Zr484      Zr  0.81466046  0.81182804  0.08043045     1.78800
O485        O  0.62684203  0.80731560  0.08712050    -0.93200
O486        O  0.88619427  0.80230822  0.07633737    -0.41000
O487        O  0.75306392  0.80613198  0.05002825    -0.77600
O488        O  0.80822332  0.75011486  0.05135973    -0.96300
O489        O  0.75044473  0.68838296  0.06023959    -0.89600
O490        O  0.69047403  0.74894515  0.06009288    -0.92400
C491        C  0.83760343  0.83752115  0.16339017     1.01300
C492        C  0.68017102  0.81709417  0.17828231     1.14300
C493        C  0.82486118  0.68122073  0.18043805     1.05000
O494        O  0.88387974  0.68809591  0.09328792    -0.94600
O495        O  0.83687315  0.67715011  0.03376100    -0.90300
O496        O  0.79493086  0.70262696  0.99289370    -0.83500
C497        C  0.82561240  0.68272134  0.00211085     1.11700
O498        O  0.66699396  0.66910415  0.15254292    -0.96600
Zr499      Zr  0.69587035  0.69439559  0.09883261     1.88900
O500        O  0.69777646  0.69536614  0.99892814    -0.73200
O501        O  0.80217833  0.62401531  0.08752993    -0.52500
O502        O  0.70937238  0.62411064  0.10623365    -0.97100
O503        O  0.62423478  0.70361721  0.10246785    -0.54400
O504        O  0.67168748  0.66412938  0.04572860    -0.73700
C505        C  0.67526259  0.66914206  0.01278794     0.98600
O506        O  0.76760335  0.75778486  0.96245255    -0.62500
O507        O  0.69965953  0.88274220  0.09180781    -0.57300
O508        O  0.70548755  0.79408594  0.99261530    -0.94000
O509        O  0.68236637  0.83697924  0.03355354    -0.92500
O510        O  0.80045792  0.88193098  0.07290653    -0.92800
O511        O  0.84338952  0.83488567  0.02598120    -0.91600
C512        C  0.68689500  0.82561555  0.00192053     1.17500
H513        H  0.76141777  0.84263659  0.13258226     0.33400
H514        H  0.82992931  0.74978376  0.03499270     0.44300
H515        H  0.66563674  0.74848342  0.04743482     0.37800
H516        H  0.75689190  0.67803181  0.14676002     0.34300
H517        H  0.89785910  0.82855008  0.08159056     0.26100
H518        H  0.82933741  0.61295806  0.08616983     0.32000
H519        H  0.68552491  0.61046611  0.09706402     0.37900
H520        H  0.82649285  0.89522646  0.07541136     0.32400
H521        H  0.67147429  0.89059255  0.08946960     0.31200
H522        H  0.61798112  0.83517541  0.08878378     0.32900
H523        H  0.61438479  0.70168704  0.07820705     0.31900
H524        H  0.82364148  0.82751998  0.00795584     0.35900
H525        H  0.74429811  0.75304097  0.94723439     0.28600
H526        H  0.78120722  0.76399375  0.23210312     0.32800
H527        H  0.64815437  0.64812228  0.14532124     0.35700
H528        H  0.70680503  0.88995468  0.11603483     0.28300
H529        H  0.77216603  0.78670979  0.96169567     0.41200
H530        H  0.89420291  0.71207565  0.08168366     0.31200
H531        H  0.89316056  0.78588895  0.09676940     0.38900
H532        H  0.62080382  0.73181329  0.10877245     0.30700
H533        H  0.79261056  0.61630848  0.11090946     0.30800
H534        H  0.74471619  0.73539642  0.22672910     0.31000
Zr535      Zr  0.74290670  0.74445463  0.68016361     2.17500
O536        O  0.76294265  0.76113168  0.73958735    -0.51300
O537        O  0.69593946  0.69543729  0.70224107    -0.74500
O538        O  0.70105348  0.79481915  0.70812009    -0.81300
O539        O  0.83794123  0.68322839  0.66905214    -0.83100
O540        O  0.67510455  0.83425426  0.66595830    -0.78700
O541        O  0.79558198  0.70788434  0.70983431    -0.90300
O542        O  0.67106275  0.66242165  0.65551027    -0.76300
O543        O  0.68822683  0.74768414  0.64067457    -0.85800
O544        O  0.75002193  0.68891418  0.64201653    -0.85500
O545        O  0.74996811  0.80662986  0.65033947    -0.72200
O546        O  0.80576999  0.75142834  0.65133773    -0.84400
Zr547      Zr  0.76367636  0.76195875  0.54365537     2.26400
Zr548      Zr  0.69545757  0.80880834  0.60971412     2.06300
Zr549      Zr  0.81166062  0.69691181  0.61185765     2.10000
Zr550      Zr  0.69564244  0.69236751  0.60271966     1.78800
O551        O  0.88372544  0.70057157  0.60873285    -0.93200
O552        O  0.62362530  0.69838112  0.60021633    -0.41000
O553        O  0.75706981  0.69936117  0.57217794    -0.77600
O554        O  0.70032122  0.75305493  0.57122972    -0.96300
O555        O  0.75810555  0.81748186  0.58143688    -0.89600
O556        O  0.81870711  0.75838411  0.58227403    -0.92400
C557        C  0.67431632  0.66824843  0.68840046     1.01300
C558        C  0.82714090  0.68915668  0.70065467     1.14300
C559        C  0.68081758  0.82497328  0.69797541     1.05000
O560        O  0.62347394  0.80342903  0.61162877    -0.94600
O561        O  0.67159375  0.82868367  0.55215483    -0.90300
O562        O  0.71169456  0.79810436  0.51318375    -0.83500
C563        C  0.68181920  0.81998243  0.52077065     1.11700
O564        O  0.84049940  0.83221424  0.67744315    -0.96600
Zr565      Zr  0.81215091  0.81274655  0.62146053     1.88900
O566        O  0.80986385  0.81256495  0.52526722    -0.73200
O567        O  0.69365249  0.88067498  0.60550156    -0.52500
O568        O  0.79720504  0.88234111  0.63164522    -0.97100
O569        O  0.88438788  0.80722627  0.62307449    -0.54400
O570        O  0.83814623  0.84465320  0.57076869    -0.73700
C571        C  0.83295172  0.83893601  0.53818255     0.98600
O572        O  0.76061272  0.74810493  0.48136999    -0.62500
O573        O  0.81076768  0.62522710  0.61814325    -0.57300
O574        O  0.80023946  0.70912329  0.51484510    -0.94000
O575        O  0.83109512  0.67084333  0.55503461    -0.92500
O576        O  0.70985407  0.62226603  0.59493941    -0.92800
O577        O  0.66676660  0.66740938  0.54869712    -0.91600
C578        C  0.82232219  0.67972572  0.52337953     1.17500
H579        H  0.75011022  0.66435923  0.65479495     0.33400
H580        H  0.67883107  0.75261137  0.55457212     0.44300
H581        H  0.84335049  0.75915936  0.56960251     0.37800
H582        H  0.74911000  0.82847755  0.66656652     0.34300
H583        H  0.61360966  0.67113111  0.60365040     0.26100
H584        H  0.66611549  0.88799169  0.61176318     0.32000
H585        H  0.78834083  0.89250086  0.60874933     0.37900
H586        H  0.72604338  0.62076148  0.57347816     0.32400
H587        H  0.79659712  0.61538542  0.59723110     0.31200
H588        H  0.89276760  0.67281902  0.61086993     0.32900
H589        H  0.89229971  0.79701507  0.59991601     0.31900
H590        H  0.68551959  0.67585002  0.53033679     0.35900
H591        H  0.73370428  0.73741595  0.47697075     0.28600
H592        H  0.73927349  0.75675947  0.75433117     0.32800
H593        H  0.85620620  0.85635135  0.67269363     0.35700
H594        H  0.83865905  0.61697949  0.61459482     0.28300
H595        H  0.76156158  0.77396852  0.46936697     0.41200
H596        H  0.61696611  0.78255973  0.59439240     0.31200
H597        H  0.61630360  0.71249545  0.62191047     0.38900
H598        H  0.88979124  0.78502317  0.63916716     0.30700
H599        H  0.71002647  0.89023948  0.62524613     0.30800
H600        H  0.76734867  0.79010237  0.73981692     0.31000
Zr601      Zr  0.76153774  0.23555584  0.16046624     2.17500
O602        O  0.75235303  0.25422294  0.22137122    -0.51300
O603        O  0.81043245  0.18828335  0.18080545    -0.74500
O604        O  0.71044330  0.19696715  0.18986580    -0.81300
O605        O  0.82884871  0.32575513  0.14962084    -0.83100
O606        O  0.67144332  0.16604439  0.14997814    -0.78700
O607        O  0.79851154  0.28732197  0.18996100    -0.90300
O608        O  0.84097104  0.15850550  0.13523169    -0.76300
O609        O  0.75628922  0.17994370  0.12272702    -0.85800
O610        O  0.81704343  0.23860230  0.12232486    -0.85500
O611        O  0.69877817  0.24436484  0.13177586    -0.72200
O612        O  0.75554121  0.29780471  0.13124904    -0.84400
Zr613      Zr  0.74233522  0.25308085  0.02323170     2.26400
Zr614      Zr  0.69440729  0.18861108  0.09314590     2.06300
Zr615      Zr  0.81071294  0.29978584  0.09229684     2.10000
Zr616      Zr  0.81061810  0.18419247  0.08328272     1.78800
O617        O  0.81138906  0.37152706  0.08637442    -0.93200
O618        O  0.79904120  0.11305087  0.08102211    -0.41000
O619        O  0.80506958  0.24523337  0.05246552    -0.77600
O620        O  0.74913201  0.19097510  0.05326852    -0.96300
O621        O  0.68757101  0.24974416  0.06213758    -0.89600
O622        O  0.74935229  0.30853683  0.06142705    -0.92400
C623        C  0.83595867  0.16427592  0.16785822     1.01300
C624        C  0.82067382  0.31653552  0.18130730     1.14300
C625        C  0.68117312  0.17446207  0.18155605     1.05000
O626        O  0.69414889  0.11657284  0.09495566    -0.94600
O627        O  0.67397897  0.16356305  0.03671639    -0.90300
O628        O  0.70083925  0.20286401  0.99486122    -0.83500
C629        C  0.68002100  0.17304006  0.00480051     1.11700
O630        O  0.66029813  0.32991620  0.15161828    -0.96600
Zr631      Zr  0.69443366  0.30511416  0.10003231     1.88900
O632        O  0.69626512  0.30299975  0.00088782    -0.73200
O633        O  0.62259838  0.19601775  0.09151303    -0.52500
O634        O  0.62267419  0.29633018  0.09767951    -0.97100
O635        O  0.70860755  0.37480795  0.11109609    -0.54400
O636        O  0.67196947  0.33668906  0.04728129    -0.73700
C637        C  0.67491067  0.33051723  0.01444336     0.98600
O638        O  0.75319082  0.23187454  0.96317700    -0.62500
O639        O  0.88244929  0.29481264  0.09932951    -0.57300
O640        O  0.79597882  0.28933944  0.99459812    -0.94000
O641        O  0.83881498  0.31283727  0.03561799    -0.92500
O642        O  0.88096939  0.19465247  0.07211658    -0.92800
O643        O  0.83381631  0.15324480  0.02969926    -0.91600
C644        C  0.82795800  0.30728436  0.00395353     1.17500
H645        H  0.84183795  0.23797274  0.13495341     0.33400
H646        H  0.74833042  0.16909278  0.03706188     0.44300
H647        H  0.74992757  0.33310641  0.04863301     0.37800
H648        H  0.67716999  0.24433834  0.14828172     0.34300
H649        H  0.82477084  0.10098684  0.08754833     0.26100
H650        H  0.61222406  0.16899605  0.09541708     0.32000
H651        H  0.61682013  0.28786653  0.07348669     0.37900
H652        H  0.89315930  0.19846039  0.09537481     0.32400
H653        H  0.89212997  0.28214897  0.07767116     0.31200
H654        H  0.83728808  0.37773648  0.07555901     0.32900
H655        H  0.71998074  0.38484463  0.08907107     0.31900
H656        H  0.82504456  0.17139013  0.01100010     0.35900
H657        H  0.75051474  0.25601192  0.94880712     0.28600
H658        H  0.75388412  0.22948572  0.23505848     0.32800
H659        H  0.64276578  0.35140093  0.14320820     0.35700
H660        H  0.89212917  0.32242144  0.09806458     0.28300
H661        H  0.78157384  0.22448298  0.96173373     0.41200
H662        H  0.71038987  0.10818224  0.07477629     0.31200
H663        H  0.78148537  0.10748868  0.10106020     0.38900
H664        H  0.73119077  0.37478536  0.12764268     0.30700
H665        H  0.61599839  0.21067070  0.11311058     0.30800
H666        H  0.72449177  0.26325900  0.22322107     0.31000
Zr667      Zr  0.74465033  0.25299703  0.68086874     2.17500
O668        O  0.75665004  0.23481965  0.74151130    -0.51300
O669        O  0.69805093  0.30264693  0.70205710    -0.74500
O670        O  0.79708964  0.29171238  0.70878006    -0.81300
O671        O  0.68082842  0.15969007  0.66982369    -0.83100
O672        O  0.83609097  0.31864271  0.66682118    -0.78700
O673        O  0.70613243  0.20173942  0.71060625    -0.90300
O674        O  0.67363533  0.33565870  0.65533507    -0.76300
O675        O  0.75135945  0.30715507  0.64150865    -0.85800
O676        O  0.68906612  0.24912311  0.64248947    -0.85500
O677        O  0.80705847  0.24329693  0.65139780    -0.72200
O678        O  0.74948007  0.18997025  0.65242429    -0.84400
Zr679      Zr  0.76265429  0.23146352  0.54407999     2.26400
Zr680      Zr  0.81242473  0.29698173  0.61054718     2.06300
Zr681      Zr  0.69476095  0.18696660  0.61282461     2.10000
Zr682      Zr  0.69606151  0.30278927  0.60310428     1.78800
O683        O  0.69422007  0.11521639  0.60721099    -0.93200
O684        O  0.70914086  0.37257239  0.59217332    -0.41000
O685        O  0.70014289  0.24091612  0.57282943    -0.77600
O686        O  0.75676516  0.29492678  0.57191248    -0.96300
O687        O  0.81823878  0.23425863  0.58220706    -0.89600
O688        O  0.75609175  0.17714089  0.58301790    -0.92400
C689        C  0.67676350  0.32989236  0.68817909     1.01300
C690        C  0.68681147  0.17049089  0.70149965     1.14300
C691        C  0.82694458  0.31234154  0.69873290     1.05000
O692        O  0.81238888  0.36896940  0.60851633    -0.94600
O693        O  0.83498762  0.31862579  0.55304972    -0.90300
O694        O  0.80031579  0.28253998  0.51344472    -0.83500
C695        C  0.82484362  0.31029738  0.52149665     1.11700
O696        O  0.83699898  0.15833610  0.67811356    -0.96600
Zr697      Zr  0.81067919  0.18104887  0.62240350     1.88900
O698        O  0.80721033  0.17873918  0.52606292    -0.73200
O699        O  0.88455195  0.29213242  0.60997665    -0.52500
O700        O  0.88244761  0.18956707  0.62476877    -0.97100
O701        O  0.79715999  0.11087310  0.63108165    -0.54400
O702        O  0.83660836  0.14856519  0.57191130    -0.73700
C703        C  0.83078090  0.15301712  0.53930284     0.98600
O704        O  0.76076730  0.23788907  0.48074316    -0.62500
O705        O  0.62319254  0.19246783  0.62003872    -0.57300
O706        O  0.70409996  0.20243412  0.51690318    -0.94000
O707        O  0.66740664  0.16875274  0.55636190    -0.92500
O708        O  0.62415428  0.29582203  0.60281068    -0.92800
O709        O  0.66534895  0.32502176  0.54911578    -0.91600
C710        C  0.67498324  0.17984558  0.52511393     1.17500
H711        H  0.66443848  0.25069226  0.65516900     0.33400
H712        H  0.75754192  0.31642177  0.55545814     0.44300
H713        H  0.75538056  0.15223949  0.57064065     0.37800
H714        H  0.82895963  0.24338804  0.66764461     0.34300
H715        H  0.68287495  0.38556304  0.59383145     0.26100
H716        H  0.89397704  0.31900596  0.61615829     0.32000
H717        H  0.89355072  0.16317094  0.61923008     0.37900
H718        H  0.61393069  0.32310705  0.60563517     0.32400
H719        H  0.61414411  0.20805327  0.59972215     0.31200
H720        H  0.66653024  0.10742397  0.61233690     0.32900
H721        H  0.78452794  0.10173685  0.60918483     0.31900
H722        H  0.68127819  0.31243310  0.53048608     0.35900
H723        H  0.75751372  0.21077749  0.47131166     0.28600
H724        H  0.75437099  0.25956876  0.75523645     0.32800
H725        H  0.85406760  0.13533685  0.67254564     0.35700
H726        H  0.61299491  0.16543961  0.61563771     0.28300
H727        H  0.73562257  0.25169907  0.47520196     0.41200
H728        H  0.79737248  0.37734215  0.62941321     0.31200
H729        H  0.72365164  0.38189296  0.61309501     0.38900
H730        H  0.77553852  0.11018025  0.64849483     0.30700
H731        H  0.89129066  0.27571964  0.63047495     0.30800
H732        H  0.78501359  0.22729620  0.74286465     0.31000
O733        O  0.92482042  0.08208532  0.29602201    -0.75300
O734        O  0.95373073  0.04533470  0.25329736    -0.54200
C735        C  0.93090937  0.07339936  0.26392219     0.78400
O736        O  0.07960811  0.06845707  0.41093530    -0.59900
O737        O  0.04220176  0.03883641  0.45272776    -0.52900
C738        C  0.07039395  0.06182253  0.44271476     0.70500
O739        O  0.07566806  0.07516278  0.29615698    -0.74400
O740        O  0.04052426  0.04395842  0.25345690    -0.55000
C741        C  0.06652132  0.06917582  0.26416414     0.76500
O742        O  0.91796538  0.07157892  0.41111663    -0.59600
O743        O  0.95265077  0.03881546  0.45297568    -0.52700
C744        C  0.92540974  0.06293511  0.44296077     0.73100
Zr745      Zr  0.94102891  0.05786887  0.35317521     2.54700
O746        O  0.94356642  0.12946501  0.35960114    -0.80200
O747        O  0.86907341  0.05721648  0.34695895    -0.93600
Zr748      Zr  0.05740675  0.05263250  0.35320471     2.64700
O749        O  0.05942778  0.12442452  0.35792121    -0.98500
O750        O  0.12942737  0.04684456  0.35224122    -0.80600
O751        O  0.99922179  0.05761408  0.31907643    -0.83900
O752        O  0.99934615  0.05617652  0.38742832    -2.18700
O753        O  0.91374463  0.92617757  0.40916971    -0.67300
O754        O  0.95126681  0.95485914  0.45161649    -0.51900
C755        C  0.92284948  0.93237103  0.44118951     0.71400
O756        O  0.06774682  0.91663439  0.29242443    -0.60200
O757        O  0.03829798  0.95500389  0.25110058    -0.52200
C758        C  0.06095081  0.92642240  0.26070783     0.73200
O759        O  0.07395733  0.91884904  0.40827554    -0.71600
O760        O  0.04057237  0.95108417  0.45131181    -0.50300
C761        C  0.06662041  0.92606624  0.44044853     0.74600
O762        O  0.91601540  0.92477851  0.29326049    -0.67000
O763        O  0.95133770  0.95715661  0.25162871    -0.54200
C764        C  0.92432214  0.93273632  0.26147961     0.73000
Zr765      Zr  0.93605950  0.94222425  0.35145473     2.77500
O766        O  0.93646925  0.87021291  0.35267132    -0.97700
O767        O  0.86382613  0.94391368  0.35098635    -0.78500
Zr768      Zr  0.05182958  0.93694788  0.35084158     2.70100
O769        O  0.04429914  0.86534631  0.35222835    -0.79800
O770        O  0.12375826  0.93233929  0.34674630    -0.98900
Zr771      Zr  0.99635412  0.99935093  0.28426566     2.21500
Zr772      Zr  0.99717809  0.99640128  0.42016795     2.11100
O773        O  0.99417808  0.93761147  0.38562832    -2.47600
O774        O  0.99364816  0.93933579  0.31663286    -0.79600
O775        O  0.93775822  0.99953386  0.38656373    -0.71800
O776        O  0.05589514  0.99556379  0.31771113    -2.32700
O777        O  0.93711217  0.00078694  0.31803456    -2.28900
O778        O  0.05620230  0.99401319  0.38631160    -0.73500
H779        H  0.00019170  0.07908419  0.40256054     0.78500
H780        H  0.07900117  0.99486318  0.30281981     0.79600
H781        H  0.99326619  0.91422742  0.40002536     0.81800
H782        H  0.91385764  0.00219422  0.30334496     0.79400
H783        H  0.13479587  0.02251866  0.33862783     0.42400
H784        H  0.13382085  0.94931687  0.36588759     0.41400
H785        H  0.02547198  0.85933320  0.33309184     0.41100
H786        H  0.90814596  0.86268115  0.35081720     0.39000
H787        H  0.85700652  0.96878160  0.33881639     0.42100
H788        H  0.86070081  0.08467054  0.35215643     0.36900
H789        H  0.91541904  0.13785696  0.35979053     0.43000
H790        H  0.08729034  0.13149945  0.35269916     0.39400
H791        H  0.94810328  0.86220660  0.33006263     0.44400
H792        H  0.85945436  0.04155210  0.36698580     0.43100
H793        H  0.04407443  0.13403261  0.33761707     0.43200
H794        H  0.13003101  0.90501776  0.35417215     0.43600
O795        O  0.42982608  0.91594723  0.91644481    -0.75300
O796        O  0.38175448  0.95208445  0.88899925    -0.54200
C797        C  0.39353776  0.92480526  0.90998743     0.78400
O798        O  0.56028610  0.07804463  0.91897154    -0.59900
O799        O  0.60888236  0.04324809  0.89083091    -0.52900
C800        C  0.59668893  0.07032422  0.91195511     0.70500
O801        O  0.42830031  0.07603076  0.91978126    -0.74400
O802        O  0.38062313  0.04090530  0.89067390    -0.55000
C803        C  0.39203072  0.06777428  0.91231653     0.76500
O804        O  0.56191015  0.91463144  0.91479599    -0.59600
O805        O  0.60982214  0.95307307  0.88996158    -0.52700
C806        C  0.59820739  0.92430942  0.90943476     0.73100
Zr807      Zr  0.49577192  0.93708772  0.89995793     2.54700
O808        O  0.49546288  0.93483491  0.96333487    -0.80200
O809        O  0.49737000  0.86518420  0.89397676    -0.93600
Zr810      Zr  0.49471606  0.05323361  0.90547912     2.64700
O811        O  0.49444146  0.04203256  0.96809727    -0.98500
O812        O  0.49331624  0.12463875  0.91371792    -0.80600
O813        O  0.45601462  0.99487516  0.90381164    -0.83900
O814        O  0.53458245  0.99544790  0.90399089    -2.18700
O815        O  0.56076749  0.91905341  0.78384147    -0.67300
O816        O  0.60904007  0.95284237  0.81355731    -0.51900
C817        C  0.59709670  0.92637594  0.79167089     0.71400
O818        O  0.42982886  0.08074595  0.78721490    -0.60200
O819        O  0.38199670  0.04289599  0.81312563    -0.52200
C820        C  0.39360425  0.07094246  0.79291129     0.73200
O821        O  0.56238549  0.08287167  0.78993958    -0.71600
O822        O  0.60996107  0.04285443  0.81354934    -0.50300
C823        C  0.59862488  0.07227926  0.79467802     0.74600
O824        O  0.42884291  0.92127272  0.78186743    -0.67000
O825        O  0.38119623  0.95449210  0.81257749    -0.54200
C826        C  0.39263262  0.92885828  0.78991676     0.73000
Zr827      Zr  0.49508303  0.94354412  0.79748258     2.77500
O828        O  0.49424769  0.95767675  0.73529808    -0.97700
O829        O  0.49416585  0.87235649  0.78810749    -0.78500
Zr830      Zr  0.49593458  0.05924395  0.80313052     2.70100
O831        O  0.49694154  0.05628953  0.73977886    -0.79800
O832        O  0.49328503  0.13128598  0.80499801    -0.98900
Zr833      Zr  0.41773412  0.99792881  0.85156794     2.21500
Zr834      Zr  0.57340593  0.99826614  0.85191625     2.11100
O835        O  0.53503672  0.00119981  0.79948515    -2.47600
O836        O  0.45603285  0.00154796  0.79946597    -0.79600
O837        O  0.53424602  0.93963249  0.84867004    -0.71800
O838        O  0.45654652  0.05702115  0.85399782    -2.32700
O839        O  0.45670627  0.93903202  0.84880457    -2.28900
O840        O  0.53431803  0.05711058  0.85468468    -0.73500
H841        H  0.55141858  0.99466023  0.92439579     0.78500
H842        H  0.43993951  0.08028203  0.85464824     0.79600
H843        H  0.55198237  0.00216976  0.77922794     0.81800
H844        H  0.44023078  0.91566242  0.84794623     0.79400
H845        H  0.48500902  0.13519618  0.89080076     0.42400
H846        H  0.50986636  0.13872835  0.82531413     0.41400
H847        H  0.51068435  0.08082224  0.73260668     0.41100
H848        H  0.52253833  0.95963606  0.72863477     0.39000
H849        H  0.49886112  0.86108603  0.81153907     0.42100
H850        H  0.46955948  0.85619693  0.89632814     0.36900
H851        H  0.51505764  0.95504001  0.97067062     0.43000
H852        H  0.48268209  0.06642993  0.97800125     0.39400
H853        H  0.48494617  0.93280186  0.72431394     0.44400
H854        H  0.51063309  0.85560267  0.91539323     0.43100
H855        H  0.47386639  0.02153918  0.97165826     0.43200
H856        H  0.50864651  0.14017740  0.78450567     0.43600
O857        O  0.07499119  0.43392265  0.92237903    -0.75300
O858        O  0.04154127  0.38550440  0.89267327    -0.54200
C859        C  0.06741383  0.39759510  0.91494392     0.78400
O860        O  0.91144164  0.56445227  0.91058706    -0.59900
O861        O  0.95139099  0.61177096  0.88676284    -0.52900
C862        C  0.92170285  0.60047696  0.90519114     0.70500
O863        O  0.91571121  0.43199075  0.91712098    -0.74400
O864        O  0.95417038  0.38430286  0.89175129    -0.55000
C865        C  0.92574123  0.39578588  0.91168545     0.76500
O866        O  0.07345380  0.56708239  0.92022466    -0.59600
O867        O  0.03982703  0.61326489  0.88830359    -0.52700
C868        C  0.06521451  0.60288768  0.91154849     0.73100
Zr869      Zr  0.05332993  0.49982854  0.90573556     2.54700
O870        O  0.04338884  0.50210606  0.96853794    -0.80200
O871        O  0.12536160  0.50111541  0.91103926    -0.93600
Zr872      Zr  0.93704534  0.49837714  0.90141919     2.64700
O873        O  0.94204622  0.50381543  0.96460099    -0.98500
O874        O  0.86496628  0.49677096  0.90486077    -0.80600
O875        O  0.99553136  0.45983308  0.90516110    -0.83900
O876        O  0.99474402  0.53825300  0.90370640    -2.18700
O877        O  0.08068181  0.56255958  0.78772563    -0.67300
O878        O  0.04268815  0.61050705  0.81320478    -0.51900
C879        C  0.07108895  0.59872201  0.79340032     0.71400
O880        O  0.92189016  0.42999139  0.78300546    -0.60200
O881        O  0.95370840  0.38314950  0.81562238    -0.52200
C882        C  0.92890643  0.39416115  0.79204776     0.73200
O883        O  0.91600181  0.56224695  0.78520651    -0.71600
O884        O  0.95382561  0.61024311  0.81093413    -0.50300
C885        C  0.92547792  0.59850738  0.79098670     0.74600
O886        O  0.08231002  0.43148868  0.78992597    -0.67000
O887        O  0.04342577  0.38439192  0.81541526    -0.54200
C888        C  0.07233371  0.39548891  0.79580027     0.73000
Zr889      Zr  0.05762775  0.49709241  0.80278725     2.77500
O890        O  0.05109528  0.49439861  0.73965196    -0.97700
O891        O  0.12981553  0.49902989  0.80060144    -0.78500
Zr892      Zr  0.94108419  0.49657592  0.79873484     2.70100
O893        O  0.94856294  0.49851041  0.73568920    -0.79800
O894        O  0.86918158  0.49168005  0.79373496    -0.98900
Zr895      Zr  0.99796138  0.42081615  0.85321704     2.21500
Zr896      Zr  0.99703815  0.57472269  0.85051402     2.11100
O897        O  0.99927166  0.53575657  0.79869227    -2.47600
O898        O  0.99962389  0.45757682  0.80030650    -0.79600
O899        O  0.05646843  0.53686870  0.85358868    -0.71800
O900        O  0.93832582  0.45895960  0.85056416    -2.32700
O901        O  0.05680769  0.46011737  0.85491869    -2.28900
O902        O  0.93791004  0.53600656  0.84950687    -0.73500
H903        H  0.99355959  0.55576985  0.92362825     0.78500
H904        H  0.91509455  0.44222432  0.85010416     0.79600
H905        H  0.99994817  0.55217261  0.77813482     0.81800
H906        H  0.08029112  0.44379661  0.85594036     0.79400
H907        H  0.85610858  0.49406351  0.88035850     0.42400
H908        H  0.85885542  0.50965481  0.81200136     0.41400
H909        H  0.92365924  0.51064511  0.72712148     0.41100
H910        H  0.07787634  0.48703093  0.73129964     0.39000
H911        H  0.13756098  0.51857858  0.81865192     0.42100
H912        H  0.13485975  0.48188640  0.89341831     0.36900
H913        H  0.06481026  0.48539873  0.97827546     0.43000
H914        H  0.92247060  0.52439124  0.97107168     0.39400
H915        H  0.03464412  0.47066221  0.73508172     0.44400
H916        H  0.13115829  0.48849985  0.93373456     0.43100
H917        H  0.93053729  0.47890152  0.97354432     0.43200
H918        H  0.86252284  0.50488971  0.77149040     0.43600
C919        C  0.66972239  0.10355458  0.72451453    -0.21300
C920        C  0.66993985  0.14489957  0.72900398    -0.09300
C921        C  0.65098179  0.16127296  0.75828772     0.29500
C922        C  0.62998537  0.13686730  0.78118611    -0.21300
C923        C  0.62842175  0.09578116  0.77582544    -0.09400
C924        C  0.64942974  0.07909526  0.74787279     0.29500
F925        F  0.64760064  0.03960253  0.74151473    -0.19900
H926        H  0.68423052  0.09028760  0.70219034     0.17900
H927        H  0.61331957  0.15022998  0.80226893     0.17900
F928        F  0.65000053  0.20103631  0.76322466    -0.19900
C929        C  0.88587855  0.10528562  0.52766986    -0.21300
C930        C  0.85319124  0.12722484  0.51539173    -0.09300
C931        C  0.84320957  0.12529876  0.47990046     0.29500
C932        C  0.86633658  0.10333903  0.45715915    -0.21300
C933        C  0.90013175  0.08286793  0.46895073    -0.09400
C934        C  0.90930941  0.08332264  0.50468339     0.29500
F935        F  0.94147050  0.06385027  0.51730482    -0.19900
H936        H  0.89411161  0.10603216  0.55495664     0.17900
H937        H  0.85781779  0.10299206  0.42992929     0.17900
F938        F  0.81132331  0.14485152  0.46681815    -0.19900
C939        C  0.89394123  0.33545958  0.71628083    -0.21300
C940        C  0.85409445  0.32864452  0.72529701    -0.09300
C941        C  0.84121099  0.33788036  0.75922144     0.29500
C942        C  0.86726393  0.35616755  0.78268895    -0.21300
C943        C  0.90642667  0.36447337  0.77281723    -0.09400
C944        C  0.91993236  0.35309809  0.73987101     0.29500
F945        F  0.95752536  0.36164887  0.72970926    -0.19900
H946        H  0.90484853  0.32796697  0.69056490     0.17900
H947        H  0.85628290  0.36596601  0.80778846     0.17900
F948        F  0.80300090  0.33169793  0.76891862    -0.19900
C949        C  0.62843745  0.13507494  0.92337592    -0.21300
C950        C  0.62566320  0.09454083  0.93081627    -0.09300
C951        C  0.64313887  0.07972414  0.96121480     0.29500
C952        C  0.66154856  0.10549456  0.98470047    -0.21300
C953        C  0.66313606  0.14637266  0.97805350    -0.09400
C954        C  0.64754716  0.16086869  0.94657304     0.29500
F955        F  0.64830941  0.20014343  0.93937838    -0.19900
H956        H  0.61406960  0.14697994  0.90040322     0.17900
H957        H  0.67376926  0.09358929  0.00860130     0.17900
F958        F  0.63969365  0.04086016  0.96944612    -0.19900
C959        C  0.83706029  0.34304116  0.94795482    -0.21300
C960        C  0.85390333  0.32364498  0.97664764    -0.09300
C961        C  0.89550828  0.32336495  0.98057737     0.29500
C962        C  0.91951528  0.34409490  0.95718874    -0.21300
C963        C  0.90225110  0.36600943  0.93021148    -0.09400
C964        C  0.86099635  0.36453424  0.92514840     0.29500
F965        F  0.84377278  0.38554188  0.89909894    -0.19900
H966        H  0.80515666  0.34366510  0.94447274     0.17900
H967        H  0.95126906  0.34523068  0.96153153     0.17900
F968        F  0.91280148  0.30424151  0.00770694    -0.19900
C969        C  0.88683853  0.13015473  0.25019152    -0.21300
C970        C  0.90895342  0.09750831  0.23825078    -0.09300
C971        C  0.90791087  0.08786431  0.20258988     0.29500
C972        C  0.88441320  0.10995794  0.17980114    -0.21300
C973        C  0.86148734  0.14188895  0.19208187    -0.09400
C974        C  0.86337327  0.15204215  0.22758215     0.29500
F975        F  0.84269211  0.18314680  0.24073238    -0.19900
H976        H  0.88719458  0.13879242  0.27738951     0.17900
H977        H  0.88369937  0.10155310  0.15255400     0.17900
F978        F  0.92872837  0.05672217  0.18974035    -0.19900
C979        C  0.65177475  0.83774156  0.75723101    -0.21300
C980        C  0.66404389  0.85199604  0.72461409    -0.09300
C981        C  0.65958918  0.89263819  0.71729258     0.29500
C982        C  0.64079440  0.91768573  0.74103687    -0.21300
C983        C  0.62637277  0.90288906  0.77251168    -0.09400
C984        C  0.63271510  0.86297058  0.78095235     0.29500
F985        F  0.61876484  0.84809887  0.81137085    -0.19900
H986        H  0.65530490  0.80677056  0.76368603     0.17900
H987        H  0.63557343  0.94827887  0.73401844     0.17900
F988        F  0.67284171  0.90818461  0.68691133    -0.19900
C989        C  0.89423758  0.67016287  0.72191333    -0.21300
C990        C  0.85311805  0.67247240  0.72787179    -0.09300
C991        C  0.83716599  0.65481905  0.75785436     0.29500
C992        C  0.86152242  0.63226585  0.77964814    -0.21300
C993        C  0.90210799  0.62826893  0.77245673    -0.09400
C994        C  0.91866453  0.64842263  0.74417022     0.29500
F995        F  0.95778835  0.64447861  0.73652496    -0.19900
H996        H  0.90720936  0.68388805  0.69914939     0.17900
H997        H  0.84846736  0.61658740  0.80136989     0.17900
F998        F  0.79769434  0.65674339  0.76459575    -0.19900
C999        C  0.88535175  0.88936384  0.52605920    -0.21300
C1000       C  0.85501942  0.86425509  0.51379613    -0.09300
C1001       C  0.84627203  0.86343915  0.47798092     0.29500
C1002       C  0.86783038  0.88656995  0.45510978    -0.21300
C1003       C  0.89891063  0.91087475  0.46704607    -0.09400
C1004       C  0.90719903  0.91252478  0.50295279     0.29500
F1005       F  0.93664844  0.93582702  0.51577930    -0.19900
H1006       H  0.89266217  0.89068630  0.55352982     0.17900
H1007       H  0.86029370  0.88474814  0.42770444     0.17900
F1008       F  0.81702113  0.84021089  0.46467778    -0.19900
C1009       C  0.85695894  0.62978453  0.92009908    -0.21300
C1010       C  0.89834152  0.62996053  0.92388444    -0.09300
C1011       C  0.91583284  0.65066355  0.95163651     0.29500
C1012       C  0.89190446  0.66809518  0.97703181    -0.21300
C1013       C  0.85039510  0.66620823  0.97424430    -0.09400
C1014       C  0.83303431  0.64842402  0.94479213     0.29500
F1015       F  0.79298866  0.64658513  0.94120116    -0.19900
H1016       H  0.84317648  0.61335292  0.89901598     0.17900
H1017       H  0.90574526  0.68245099  0.99922124     0.17900
F1018       F  0.95585787  0.65105782  0.95572290    -0.19900
C1019       C  0.62699398  0.85891866  0.92387301    -0.21300
C1020       C  0.62768526  0.90021598  0.92806033    -0.09300
C1021       C  0.65078064  0.91689745  0.95475397     0.29500
C1022       C  0.67098976  0.89236970  0.97814436    -0.21300
C1023       C  0.66926267  0.85095026  0.97468379    -0.09400
C1024       C  0.64812110  0.83440831  0.94661753     0.29500
F1025       F  0.64543968  0.79457057  0.94272513    -0.19900
H1026       H  0.60867343  0.84560073  0.90377787     0.17900
H1027       H  0.68721397  0.90570129  0.99957009     0.17900
F1028       F  0.65130471  0.95663745  0.95981701    -0.19900
C1029       C  0.91514691  0.90678776  0.20097305    -0.21300
C1030       C  0.90091022  0.91138492  0.23506323    -0.09300
C1031       C  0.86480553  0.89329971  0.24447976     0.29500
C1032       C  0.84489725  0.86919397  0.22100762    -0.21300
C1033       C  0.85969061  0.86336417  0.18736255    -0.09400
C1034       C  0.89458547  0.88315639  0.17709900     0.29500
F1035       F  0.90945087  0.87892028  0.14445233    -0.19900
H1036       H  0.94266208  0.92062831  0.19304759     0.17900
H1037       H  0.81745903  0.85537514  0.22919168     0.17900
F1038       F  0.84836054  0.89892507  0.27638195    -0.19900
C1039       C  0.07676852  0.09439533  0.50082094    -0.21300
C1040       C  0.09358812  0.08393993  0.46872273    -0.09300
C1041       C  0.13149781  0.09844839  0.45997754     0.29500
C1042       C  0.15122302  0.12427121  0.48221455    -0.21300
C1043       C  0.13422620  0.13541492  0.51396763    -0.09400
C1044       C  0.09696818  0.11983856  0.52345806     0.29500
F1045       F  0.07955478  0.13001401  0.55406242    -0.19900
H1046       H  0.04750459  0.08391567  0.50790315     0.17900
H1047       H  0.18028019  0.13502497  0.47479145     0.17900
F1048       F  0.14970298  0.08770546  0.42986216    -0.19900
C1049       C  0.32997798  0.10393012  0.71888868    -0.21300
C1050       C  0.32692384  0.14469869  0.72585779    -0.09300
C1051       C  0.33987780  0.15930679  0.75831635     0.29500
C1052       C  0.35902253  0.13408553  0.78176016    -0.21300
C1053       C  0.36406856  0.09390759  0.77371530    -0.09400
C1054       C  0.34815049  0.07863081  0.74275290     0.29500
F1055       F  0.35296142  0.03989671  0.73441034    -0.19900
H1056       H  0.31925603  0.09179693  0.69446151     0.17900
H1057       H  0.37171227  0.14626293  0.80544073     0.17900
F1058       F  0.33653010  0.19827967  0.76640150    -0.19900
C1059       C  0.16020975  0.34402555  0.75656302    -0.21300
C1060       C  0.14230271  0.32474590  0.72818745    -0.09300
C1061       C  0.10063072  0.32416108  0.72552742     0.29500
C1062       C  0.07746631  0.34404369  0.75016475    -0.21300
C1063       C  0.09557650  0.36565458  0.77702564    -0.09400
C1064       C  0.13711054  0.36504131  0.78044193     0.29500
F1065       F  0.15538749  0.38663284  0.80568481    -0.19900
H1066       H  0.19224022  0.34498603  0.75894956     0.17900
H1067       H  0.04555232  0.34501560  0.74677932     0.17900
F1068       F  0.08239480  0.30552039  0.69850944    -0.19900
C1069       C  0.07770004  0.64327660  0.74336900    -0.21300
C1070       C  0.09394793  0.62792481  0.77401056    -0.09300
C1071       C  0.13439648  0.63347573  0.78132481     0.29500
C1072       C  0.15857664  0.65339136  0.75757180    -0.21300
C1073       C  0.14291780  0.66650655  0.72569036    -0.09400
C1074       C  0.10196318  0.66209979  0.71914290     0.29500
F1075       F  0.08551959  0.67493808  0.68890442    -0.19900
H1076       H  0.04670883  0.63831639  0.73713640     0.17900
H1077       H  0.18994681  0.65647777  0.76316360     0.17900
F1078       F  0.15082089  0.61764777  0.81045130    -0.19900
C1079       C  0.10414195  0.87878604  0.52399304    -0.21300
C1080       C  0.13660591  0.85663772  0.51145911    -0.09300
C1081       C  0.14573528  0.85818522  0.47578748     0.29500
C1082       C  0.12301637  0.88121166  0.45346470    -0.21300
C1083       C  0.09046505  0.90325396  0.46579088    -0.09400
C1084       C  0.08123538  0.90191567  0.50146432     0.29500
F1085       F  0.04991328  0.92229709  0.51458135    -0.19900
H1086       H  0.09623476  0.87811656  0.55131675     0.17900
H1087       H  0.13124245  0.88165020  0.42620687     0.17900
F1088       F  0.17680414  0.83781043  0.46218752    -0.19900
C1089       C  0.32956250  0.89437481  0.71597856    -0.21300
C1090       C  0.32145302  0.85516349  0.72585801    -0.09300
C1091       C  0.33145173  0.84268248  0.75969008     0.29500
C1092       C  0.35243910  0.86811529  0.78192076    -0.21300
C1093       C  0.36263888  0.90630045  0.77089270    -0.09400
C1094       C  0.35004354  0.91973247  0.73828043     0.29500
F1095       F  0.36006155  0.95641562  0.72706026    -0.19900
H1096       H  0.32156719  0.90492985  0.69027695     0.17900
H1097       H  0.36259914  0.85734497  0.80695650     0.17900
F1098       F  0.32374508  0.80518465  0.77025447    -0.19900
C1099       C  0.09743207  0.66415993  0.98731513    -0.21300
C1100       C  0.13535462  0.67657439  0.97666689    -0.09300
C1101       C  0.14685447  0.67030393  0.94176703     0.29500
C1102       C  0.12214740  0.64878642  0.91921267    -0.21300
C1103       C  0.08589663  0.63374172  0.93116571    -0.09400
C1104       C  0.07312898  0.64256786  0.96494529     0.29500
F1105       F  0.03841930  0.62773185  0.97714235    -0.19900
H1106       H  0.08732176  0.66924148  0.01372323     0.17900
H1107       H  0.13238562  0.64171128  0.89318900     0.17900
F1108       F  0.18295582  0.68215575  0.93017166    -0.19900
C1109       C  0.33656174  0.83806812  0.94472612    -0.21300
C1110       C  0.32695795  0.85209871  0.97817425    -0.09300
C1111       C  0.33388383  0.89227701  0.98622344     0.29500
C1112       C  0.35245715  0.91694846  0.96221648    -0.21300
C1113       C  0.36424759  0.90225377  0.92979602    -0.09400
C1114       C  0.35554397  0.86287637  0.92078037     0.29500
F1115       F  0.36729392  0.84795783  0.88958995    -0.19900
H1116       H  0.33113677  0.80746647  0.93774476     0.17900
H1117       H  0.35963789  0.94705914  0.96969109     0.17900
F1118       F  0.32335558  0.90770552  0.01755258    -0.19900
C1119       C  0.09562011  0.86495811  0.24385934    -0.21300
C1120       C  0.08138655  0.90246154  0.23425131    -0.09300
C1121       C  0.08911908  0.91675464  0.20061274     0.29500
C1122       C  0.11228194  0.89439754  0.17774539    -0.21300
C1123       C  0.12802554  0.85771126  0.18814994    -0.09400
C1124       C  0.11875250  0.84282824  0.22123215     0.29500
F1125       F  0.13180995  0.80681191  0.23183334    -0.19900
H1126       H  0.08931339  0.85274846  0.26931902     0.17900
H1127       H  0.11878809  0.90630315  0.15222107     0.17900
F1128       F  0.07578345  0.95276064  0.19027973    -0.19900
C1129       C  0.10001000  0.32830292  0.98510734    -0.21300
C1130       C  0.14115074  0.32708797  0.97915059    -0.09300
C1131       C  0.15669520  0.34438862  0.94889295     0.29500
C1132       C  0.13170130  0.36532056  0.92649545    -0.21300
C1133       C  0.09101478  0.36829015  0.93359674    -0.09400
C1134       C  0.07498351  0.34862505  0.96235429     0.29500
F1135       F  0.03573029  0.35156924  0.96979468    -0.19900
H1136       H  0.08744931  0.31464370  0.00807926     0.17900
H1137       H  0.14434127  0.38086870  0.90450834     0.17900
F1138       F  0.19629063  0.34380974  0.94249231    -0.19900
C1139       C  0.36144222  0.13273814  0.92463062    -0.21300
C1140       C  0.36215037  0.09174963  0.93028917    -0.09300
C1141       C  0.33996033  0.07559099  0.95760445     0.29500
C1142       C  0.31972139  0.10058930  0.98056759    -0.21300
C1143       C  0.32068158  0.14182700  0.97602152    -0.09400
C1144       C  0.34033767  0.15768256  0.94700750     0.29500
F1145       F  0.34199724  0.19739500  0.94201553    -0.19900
H1146       H  0.37891081  0.14555916  0.90385802     0.17900
H1147       H  0.30447428  0.08787215  0.00268736     0.17900
F1148       F  0.34051554  0.03606633  0.96370273    -0.19900
C1149       C  0.08927822  0.08206510  0.20331891    -0.21300
C1150       C  0.08800312  0.09337162  0.23848107    -0.09300
C1151       C  0.10855196  0.12769254  0.24923987     0.29500
C1152       C  0.13069304  0.14928514  0.22554576    -0.21300
C1153       C  0.13296075  0.13752239  0.19059033    -0.09400
C1154       C  0.11148530  0.10388921  0.17946052     0.29500
F1155       F  0.11251258  0.09141992  0.14581918    -0.19900
H1156       H  0.07377016  0.05584913  0.19437976     0.17900
H1157       H  0.14623906  0.17534064  0.23480516     0.17900
F1158       F  0.10739375  0.14077170  0.28270453    -0.19900
C1159       C  0.16859173  0.37215268  0.43706912    -0.21300
C1160       C  0.13542367  0.39648537  0.44175695    -0.09300
C1161       C  0.11372770  0.39387854  0.47291914     0.29500
C1162       C  0.12583656  0.36782859  0.49926188    -0.21300
C1163       C  0.15963531  0.34385630  0.49485798    -0.09400
C1164       C  0.18072131  0.34621552  0.46319655     0.29500
F1165       F  0.21444039  0.32515818  0.45801118    -0.19900
H1166       H  0.18611270  0.37442356  0.41352219     0.17900
H1167       H  0.10900349  0.36669540  0.52324022     0.17900
F1168       F  0.08149618  0.41721753  0.47812199    -0.19900
C1169       C  0.13038208  0.62604007  0.20344163    -0.21300
C1170       C  0.16067885  0.65389279  0.20955235    -0.09300
C1171       C  0.17842364  0.65538965  0.24290463     0.29500
C1172       C  0.16773600  0.62820462  0.26846299    -0.21300
C1173       C  0.13842335  0.59971303  0.26192490    -0.09400
C1174       C  0.11900451  0.59949697  0.22948098     0.29500
F1175       F  0.08965394  0.57303024  0.22279068    -0.19900
H1176       H  0.11568155  0.62450131  0.17835528     0.17900
H1177       H  0.18307422  0.62881201  0.29330082     0.17900
F1178       F  0.20715632  0.68208515  0.25073757    -0.19900
C1179       C  0.11489863  0.60467064  0.47090548    -0.21300
C1180       C  0.13663689  0.60321333  0.43974595    -0.09300
C1181       C  0.16837637  0.62953562  0.43501683     0.29500
C1182       C  0.17853245  0.65632771  0.46124449    -0.21300
C1183       C  0.15799810  0.65675796  0.49313161    -0.09400
C1184       C  0.12564586  0.63091234  0.49758194     0.29500
F1185       F  0.10495348  0.63035062  0.52787367    -0.19900
H1186       H  0.09052515  0.58433807  0.47501615     0.17900
H1187       H  0.20391146  0.67538628  0.45715643     0.17900
F1188       F  0.19099864  0.62779015  0.40582589    -0.19900
C1189       C  0.11524673  0.39233713  0.23196733    -0.21300
C1190       C  0.13593971  0.39265321  0.26381059    -0.09300
C1191       C  0.16580379  0.36438676  0.26940330     0.29500
C1192       C  0.17551187  0.33717610  0.24333367    -0.21300
C1193       C  0.15625146  0.33785849  0.21076109    -0.09400
C1194       C  0.12530813  0.36537382  0.20556901     0.29500
F1195       F  0.10529630  0.36687011  0.17486063    -0.19900
H1196       H  0.09211677  0.41391279  0.22719136     0.17900
H1197       H  0.19958163  0.31670642  0.24822079     0.17900
F1198       F  0.18712423  0.36444451  0.29944741    -0.19900
C1199       C  0.39669029  0.87507356  0.47263927    -0.21300
C1200       C  0.39607632  0.85545488  0.44033213    -0.09300
C1201       C  0.36881443  0.82466486  0.43492723     0.29500
C1202       C  0.34315394  0.81322418  0.46156801    -0.21300
C1203       C  0.34434828  0.83186082  0.49442268    -0.09400
C1204       C  0.37126202  0.86336083  0.49956601     0.29500
F1205       F  0.37347015  0.88256005  0.53062062    -0.19900
H1206       H  0.41781888  0.89866837  0.47730116     0.17900
H1207       H  0.32321436  0.78869478  0.45672551     0.17900
F1208       F  0.36841729  0.80429971  0.40438218    -0.19900
C1209       C  0.62444715  0.82126802  0.26421828    -0.21300
C1210       C  0.59811383  0.85269857  0.25867668    -0.09300
C1211       C  0.59949229  0.87324505  0.22690268     0.29500
C1212       C  0.62663491  0.86205584  0.20107594    -0.21300
C1213       C  0.65290310  0.83022444  0.20647484    -0.09400
C1214       C  0.65149935  0.81003730  0.23857749     0.29500
F1215       F  0.67493200  0.77822250  0.24486100    -0.19900
H1216       H  0.62325383  0.80459701  0.28825595     0.17900
H1217       H  0.62680271  0.87810433  0.17669966     0.17900
F1218       F  0.57406379  0.90355624  0.22064055    -0.19900
C1219       C  0.63206752  0.82612687  0.43185373    -0.21300
C1220       C  0.60269104  0.85466478  0.43762392    -0.09300
C1221       C  0.60135948  0.87412235  0.47008813     0.29500
C1222       C  0.62780158  0.86364747  0.49675196    -0.21300
C1223       C  0.65653056  0.83405171  0.49138975    -0.09400
C1224       C  0.65891946  0.81614522  0.45811903     0.29500
F1225       F  0.68581002  0.78741653  0.45115165    -0.19900
H1226       H  0.63331995  0.81041904  0.40723091     0.17900
H1227       H  0.62526635  0.87821208  0.52181835     0.17900
F1228       F  0.57350761  0.90225395  0.47634683    -0.19900
C1229       C  0.39021287  0.87932794  0.23131320    -0.21300
C1230       C  0.39032672  0.85880452  0.26307068    -0.09300
C1231       C  0.36136774  0.82967780  0.26888427     0.29500
C1232       C  0.33385007  0.82033814  0.24289287    -0.21300
C1233       C  0.33501959  0.83919520  0.21025002    -0.09400
C1234       C  0.36302048  0.86957861  0.20501346     0.29500
F1235       F  0.36484381  0.88925898  0.17429539    -0.19900
H1236       H  0.41227746  0.90193837  0.22645307     0.17900
H1237       H  0.31291623  0.79672568  0.24782098     0.17900
F1238       F  0.36108920  0.80863590  0.29895740    -0.19900
C1239       C  0.83049756  0.62673246  0.43597146    -0.21300
C1240       C  0.86021897  0.59868875  0.44249201    -0.09300
C1241       C  0.87939213  0.59911191  0.47513441     0.29500
C1242       C  0.86776914  0.62609045  0.50104996    -0.21300
C1243       C  0.83717642  0.65357936  0.49482217    -0.09400
C1244       C  0.81932576  0.65405731  0.46148858     0.29500
F1245       F  0.78963729  0.67960449  0.45373159    -0.19900
H1246       H  0.81501252  0.62675342  0.41120407     0.17900
H1247       H  0.88236274  0.62504194  0.52619790     0.17900
F1248       F  0.90859473  0.57267715  0.48224438    -0.19900
C1249       C  0.88106950  0.39308634  0.23170137    -0.21300
C1250       C  0.86135081  0.39346058  0.26389773    -0.09300
C1251       C  0.83000808  0.36685829  0.26941556     0.29500
C1252       C  0.81807374  0.34104683  0.24289477    -0.21300
C1253       C  0.83653559  0.34171787  0.21000411    -0.09400
C1254       C  0.86874245  0.36765943  0.20488601     0.29500
F1255       F  0.88802610  0.36891092  0.17391079    -0.19900
H1256       H  0.90516037  0.41358166  0.22698139     0.17900
H1257       H  0.79313543  0.32165589  0.24774801     0.17900
F1258       F  0.80953126  0.36734892  0.29984409    -0.19900
C1259       C  0.87345377  0.36075140  0.49843101    -0.21300
C1260       C  0.84061697  0.33567387  0.49274647    -0.09300
C1261       C  0.82126869  0.33744089  0.46007677     0.29500
C1262       C  0.83334925  0.36463759  0.43477791    -0.21300
C1263       C  0.86505432  0.39063019  0.44104666    -0.09400
C1264       C  0.88566543  0.38781780  0.47286936     0.29500
F1265       F  0.91690949  0.41202631  0.47956661    -0.19900
H1266       H  0.88924625  0.36002969  0.52302328     0.17900
H1267       H  0.81685130  0.36647678  0.41057717     0.17900
F1268       F  0.78917401  0.31452347  0.45303115    -0.19900
C1269       C  0.86772231  0.62531473  0.20316003    -0.21300
C1270       C  0.83966471  0.65538584  0.20951647    -0.09300
C1271       C  0.82393342  0.65857381  0.24356871     0.29500
C1272       C  0.83408042  0.63118429  0.26941430    -0.21300
C1273       C  0.86115010  0.60053845  0.26277371    -0.09400
C1274       C  0.87870053  0.59854054  0.22946930     0.29500
F1275       F  0.90570451  0.56994816  0.22207153    -0.19900
H1276       H  0.88079942  0.62203600  0.17757091     0.17900
H1277       H  0.81979199  0.63334772  0.29459763     0.17900
F1278       F  0.79745010  0.68722413  0.25193341    -0.19900
C1279       C  0.64747796  0.18846576  0.46512827    -0.21300
C1280       C  0.64823897  0.16690064  0.49644343    -0.09300
C1281       C  0.62295751  0.13390623  0.49979085     0.29500
C1282       C  0.59749566  0.12318910  0.47243586    -0.21300
C1283       C  0.59621647  0.14546282  0.44160023    -0.09400
C1284       C  0.62147640  0.17823291  0.43819671     0.29500
F1285       F  0.61983000  0.20133833  0.40937275    -0.19900
H1286       H  0.66620072  0.21421023  0.46180527     0.17900
H1287       H  0.57793858  0.09802815  0.47559016     0.17900
F1288       F  0.62270412  0.11201605  0.52937715    -0.19900
C1289       C  0.33956267  0.17464805  0.24181572    -0.21300
C1290       C  0.33791471  0.15482254  0.20957118    -0.09300
C1291       C  0.36269128  0.12170145  0.20429715     0.29500
C1292       C  0.38941640  0.10987796  0.23032431    -0.21300
C1293       C  0.39225920  0.13113363  0.26173067    -0.09400
C1294       C  0.36678384  0.16337966  0.26738066     0.29500
F1295       F  0.36991517  0.18546342  0.29687198    -0.19900
H1296       H  0.32124814  0.20040273  0.24662109     0.17900
H1297       H  0.40894189  0.08500506  0.22553923     0.17900
F1298       F  0.36164389  0.10117928  0.17385878    -0.19900
C1299       C  0.36290802  0.16611764  0.43296884    -0.21300
C1300       C  0.38919898  0.13467954  0.43860639    -0.09300
C1301       C  0.38765977  0.11433210  0.47049621     0.29500
C1302       C  0.36155925  0.12662864  0.49684288    -0.21300
C1303       C  0.33624762  0.15924144  0.49180280    -0.09400
C1304       C  0.33673365  0.17834450  0.45907856     0.29500
F1305       F  0.31379134  0.21049022  0.45277050    -0.19900
H1306       H  0.36401417  0.18251338  0.40877806     0.17900
H1307       H  0.36176603  0.11111465  0.52148276     0.17900
F1308       F  0.41261593  0.08362350  0.47661610    -0.19900
C1309       C  0.63114299  0.12606332  0.20528429    -0.21300
C1310       C  0.65572827  0.15929883  0.21028449    -0.09300
C1311       C  0.65341048  0.17986445  0.24227185     0.29500
C1312       C  0.62601312  0.16866091  0.26760432    -0.21300
C1313       C  0.60074906  0.13625825  0.26228001    -0.09400
C1314       C  0.60415304  0.11438026  0.23112846     0.29500
F1315       F  0.58065765  0.08240452  0.22535966    -0.19900
H1316       H  0.63237867  0.10946035  0.18113099     0.17900
H1317       H  0.62363316  0.18620911  0.29117601     0.17900
F1318       F  0.67596013  0.21231999  0.24856452    -0.19900
C1319       C  0.61465215  0.37053197  0.93784453    -0.21300
C1320       C  0.59926050  0.40536240  0.95252980    -0.09300
C1321       C  0.61117910  0.41666922  0.98614091     0.29500
C1322       C  0.63685842  0.39285258  0.00529567    -0.21300
C1323       C  0.65141542  0.35709514  0.99146396    -0.09400
C1324       C  0.64086203  0.34661123  0.95702680     0.29500
F1325       F  0.65431795  0.31254119  0.94246998    -0.19900
H1326       H  0.60558271  0.36145619  0.91194184     0.17900
H1327       H  0.64462295  0.40212865  0.03147565     0.17900
F1328       F  0.59651043  0.45009358  0.00102083    -0.19900
C1329       C  0.37982128  0.62950078  0.93887287    -0.21300
C1330       C  0.39287870  0.59323766  0.95240359    -0.09300
C1331       C  0.37933217  0.58100171  0.98522057     0.29500
C1332       C  0.35434761  0.60524977  0.00470229    -0.21300
C1333       C  0.34209414  0.64221612  0.99193687    -0.09400
C1334       C  0.35440140  0.65385081  0.95838533     0.29500
F1335       F  0.34363224  0.68947684  0.94519891    -0.19900
H1336       H  0.39029865  0.63938550  0.91371017     0.17900
H1337       H  0.34511754  0.59528282  0.03022927     0.17900
F1338       F  0.39165680  0.54617224  0.99906733    -0.19900
C1339       C  0.61540013  0.62788530  0.93610810    -0.21300
C1340       C  0.59944590  0.59357390  0.95114240    -0.09300
C1341       C  0.61053879  0.58329366  0.98516699     0.29500
C1342       C  0.63612274  0.60740649  0.00424900    -0.21300
C1343       C  0.65131705  0.64256539  0.99002767    -0.09400
C1344       C  0.64143655  0.65219260  0.95529108     0.29500
F1345       F  0.65541009  0.68577926  0.94041289    -0.19900
H1346       H  0.60690229  0.63626968  0.90992794     0.17900
H1347       H  0.64337580  0.59879402  0.03066468     0.17900
F1348       F  0.59514680  0.55059689  0.00052201    -0.19900
C1349       C  0.35403569  0.39254104  0.00599154    -0.21300
C1350       C  0.34277054  0.35510620  0.99333133    -0.09300
C1351       C  0.35522487  0.34356420  0.95974206     0.29500
C1352       C  0.38004830  0.36835842  0.94018065    -0.21300
C1353       C  0.39233700  0.40502416  0.95366521    -0.09400
C1354       C  0.37841890  0.41725795  0.98643151     0.29500
F1355       F  0.39007613  0.45242456  0.00025886    -0.19900
H1356       H  0.34461478  0.40244750  0.03153835     0.17900
H1357       H  0.39083077  0.35843564  0.91507463     0.17900
F1358       F  0.34537906  0.30753164  0.94665264    -0.19900
C1359       C  0.61758860  0.57857816  0.71997224    -0.21300
C1360       C  0.60221945  0.59189325  0.75181046    -0.09300
C1361       C  0.61294700  0.62960314  0.76418235     0.29500
C1362       C  0.63760289  0.65408936  0.74413749    -0.21300
C1363       C  0.65147927  0.64136492  0.71138644    -0.09400
C1364       C  0.64183381  0.60288337  0.69991274     0.29500
F1365       F  0.65542268  0.58874810  0.66900961    -0.19900
H1366       H  0.60948796  0.54965079  0.70999231     0.17900
H1367       H  0.64458851  0.68350087  0.75359184     0.17900
F1368       F  0.59845066  0.64312265  0.79494615    -0.19900
C1369       C  0.63760186  0.34172444  0.74264677    -0.21300
C1370       C  0.65330359  0.35606280  0.71118279    -0.09300
C1371       C  0.64394117  0.39480581  0.70063273     0.29500
C1372       C  0.61822107  0.41794711  0.72042772    -0.21300
C1373       C  0.60134788  0.40315163  0.75111883    -0.09400
C1374       C  0.61160198  0.36501910  0.76244490     0.29500
F1375       F  0.59532291  0.34991077  0.79183764    -0.19900
H1376       H  0.64415714  0.31190937  0.75115685     0.17900
H1377       H  0.61047472  0.44724466  0.71126167     0.17900
F1378       F  0.65925981  0.41024484  0.67093869    -0.19900
C1379       C  0.38032372  0.36780561  0.76697946    -0.21300
C1380       C  0.39466662  0.40351500  0.75331573    -0.09300
C1381       C  0.38295043  0.41502696  0.71974503     0.29500
C1382       C  0.35817419  0.39085247  0.69980029    -0.21300
C1383       C  0.34454237  0.35440438  0.71269735    -0.09400
C1384       C  0.35524893  0.34341878  0.74693680     0.29500
F1385       F  0.34327943  0.30832027  0.76037942    -0.19900
H1386       H  0.38963472  0.35826882  0.79263676     0.17900
H1387       H  0.35037797  0.40039121  0.67375618     0.17900
F1388       F  0.39735562  0.44882878  0.70552529    -0.19900
C1389       C  0.38373409  0.62862374  0.76622107    -0.21300
C1390       C  0.39507873  0.59146440  0.75311804    -0.09300
C1391       C  0.37972049  0.57862284  0.72100007     0.29500
C1392       C  0.35507384  0.60320167  0.70154276    -0.21300
C1393       C  0.34486410  0.64114102  0.71362698    -0.09400
C1394       C  0.35840660  0.65324129  0.74681587     0.29500
F1395       F  0.34891591  0.68944545  0.75970684    -0.19900
H1396       H  0.39552264  0.63897678  0.79088926     0.17900
H1397       H  0.34462185  0.59274010  0.67644220     0.17900
F1398       F  0.39027199  0.54293843  0.70758439    -0.19900
loop_ 
_geom_bond_atom_site_label_1 
_geom_bond_atom_site_label_2 
_geom_bond_distance 
_geom_bond_site_symmetry_2 
_ccdc_geom_bond_type 
N1            C6   1.355       .  A
N1            C5   1.356       .  A
N1           H33   1.042       .  S
N2            C9   1.352       .  A
N2           C10   1.351       .  A
N3            C8   1.356       .  A
N3            C7   1.356       .  A
N3           H34   1.042       .  S
N4           C11   1.350       .  A
N4           C12   1.351       .  A
C5           C13   1.387       .  A
C5           C21   1.416       .  A
C6           C22   1.417       .  A
C6           C14   1.388       .  A
C7           C15   1.387       .  A
C7           C24   1.417       .  A
C8           C23   1.417       .  A
C8           C16   1.387       .  A
C9           C21   1.411       .  A
C9           C17   1.385       .  A
C10          C24   1.411       .  A
C10          C18   1.386       .  A
C11          C19   1.387       .  A
C11          C22   1.411       .  A
C12          C20   1.386       .  A
C12          C23   1.411       .  A
C13          C14   1.371       .  A
C13          H25   1.082       .  S
C14          H26   1.082       .  S
C15          C16   1.371       .  A
C15          H27   1.082       .  S
C16          H28   1.082       .  S
C17          C18   1.373       .  A
C17          H29   1.083       .  S
C18          H30   1.083       .  S
C19          C20   1.372       .  A
C19          H31   1.083       .  S
C20          H32   1.083       .  S
C21        C1380   1.490       .  S
C22        C1373   1.488       .  S
C23        C1360   1.490       .  S
C24        C1390   1.490       .  S
N35          C40   1.356       .  A
N35          C39   1.356       .  A
N35          H67   1.041       .  S
N36          C43   1.352       .  A
N36          C44   1.351       .  A
N37          C42   1.357       .  A
N37          C41   1.356       .  A
N37          H68   1.041       .  S
N38          C45   1.350       .  A
N38          C46   1.351       .  A
C39          C47   1.387       .  A
C39          C55   1.417       .  A
C40          C56   1.418       .  A
C40          C48   1.387       .  A
C41          C49   1.387       .  A
C41          C58   1.417       .  A
C42          C57   1.417       .  A
C42          C50   1.387       .  A
C43          C55   1.411       .  A
C43          C51   1.386       .  A
C44          C58   1.411       .  A
C44          C52   1.386       .  A
C45          C53   1.387       .  A
C45          C56   1.410       .  A
C46          C54   1.386       .  A
C46          C57   1.410       .  A
C47          C48   1.372       .  A
C47          H59   1.082       .  S
C48          H60   1.082       .  S
C49          C50   1.372       .  A
C49          H61   1.082       .  S
C50          H62   1.082       .  S
C51          C52   1.373       .  A
C51          H63   1.083       .  S
C52          H64   1.083       .  S
C53          C54   1.373       .  A
C53          H65   1.083       .  S
C54          H66   1.083       .  S
C55        C1340   1.490       .  S
C56        C1330   1.488       .  S
C57        C1353   1.490       .  S
C58        C1320   1.488       .  S
N69          C74   1.355       .  A
N69          C73   1.353       .  A
N69         H101   1.040       .  S
N70          C77   1.354       .  A
N70          C78   1.354       .  A
N71          C76   1.354       .  A
N71          C75   1.355       .  A
N71         H102   1.041       .  S
N72          C79   1.353       .  A
N72          C80   1.351       .  A
C73          C81   1.388       .  A
C73          C89   1.415       .  A
C74          C90   1.416       .  A
C74          C82   1.387       .  A
C75          C83   1.387       .  A
C75          C92   1.417       .  A
C76          C91   1.417       .  A
C76          C84   1.388       .  A
C77          C89   1.416       .  A
C77          C85   1.385       .  A
C78          C92   1.417       .  A
C78          C86   1.386       .  A
C79          C87   1.385       .  A
C79          C90   1.414       .  A
C80          C88   1.386       .  A
C80          C91   1.414       .  A
C81          C82   1.372       .  A
C81          H93   1.082       .  S
C82          H94   1.082       .  S
C83          C84   1.374       .  A
C83          H95   1.082       .  S
C84          H96   1.082       .  S
C85          C86   1.374       .  A
C85          H97   1.082       .  S
C86          H98   1.082       .  S
C87          C88   1.375       .  A
C87          H99   1.082       .  S
C88         H100   1.082       .  S
C89        C1283   1.491       .  S
C90        C1300   1.494       .  S
C91        C1293   1.490       .  S
C92        C1313   1.497       .  S
N103        C108   1.354       .  A
N103        C107   1.357       .  A
N103        H135   1.042       .  S
N104        C111   1.356       .  A
N104        C112   1.353       .  A
N105        C110   1.358       .  A
N105        C109   1.355       .  A
N105        H136   1.042       .  S
N106        C113   1.351       .  A
N106        C114   1.353       .  A
C107        C115   1.386       .  A
C107        C123   1.418       .  A
C108        C124   1.417       .  A
C108        C116   1.388       .  A
C109        C117   1.388       .  A
C109        C126   1.420       .  A
C110        C125   1.419       .  A
C110        C118   1.386       .  A
C111        C123   1.419       .  A
C111        C119   1.385       .  A
C112        C126   1.418       .  A
C112        C120   1.387       .  A
C113        C121   1.387       .  A
C113        C124   1.414       .  A
C114        C122   1.386       .  A
C114        C125   1.414       .  A
C115        C116   1.373       .  A
C115        H127   1.082       .  S
C116        H128   1.082       .  S
C117        C118   1.375       .  A
C117        H129   1.082       .  S
C118        H130   1.082       .  S
C119        C120   1.376       .  A
C119        H131   1.082       .  S
C120        H132   1.082       .  S
C121        C122   1.376       .  A
C121        H133   1.082       .  S
C122        H134   1.082       .  S
C123       C1273   1.508       .  S
C124       C1250   1.491       .  S
C125       C1263   1.500       .  S
C126       C1240   1.498       .  S
N137        C142   1.353       .  A
N137        C141   1.354       .  A
N137        H169   1.041       .  S
N138        C145   1.350       .  A
N138        C146   1.350       .  A
N139        C144   1.352       .  A
N139        C143   1.353       .  A
N139        H170   1.042       .  S
N140        C147   1.351       .  A
N140        C148   1.352       .  A
C141        C149   1.388       .  A
C141        C157   1.416       .  A
C142        C158   1.415       .  A
C142        C150   1.387       .  A
C143        C151   1.387       .  A
C143        C160   1.412       .  A
C144        C159   1.413       .  A
C144        C152   1.387       .  A
C145        C157   1.412       .  A
C145        C153   1.386       .  A
C146        C160   1.411       .  A
C146        C154   1.385       .  A
C147        C155   1.386       .  A
C147        C158   1.414       .  A
C148        C156   1.386       .  A
C148        C159   1.414       .  A
C149        C150   1.374       .  A
C149        H161   1.082       .  S
C150        H162   1.082       .  S
C151        C152   1.373       .  A
C151        H163   1.082       .  S
C152        H164   1.082       .  S
C153        C154   1.376       .  A
C153        H165   1.082       .  S
C154        H166   1.082       .  S
C155        C156   1.375       .  A
C155        H167   1.082       .  S
C156        H168   1.082       .  S
C157       C1230   1.491       .  S
C158       C1210   1.490       .  S
C159       C1220   1.492       .  S
C160       C1200   1.489       .  S
N171        C176   1.352       .  A
N171        C175   1.353       .  A
N171        H203   1.041       .  S
N172        C179   1.351       .  A
N172        C180   1.351       .  A
N173        C178   1.354       .  A
N173        C177   1.353       .  A
N173        H204   1.042       .  S
N174        C181   1.352       .  A
N174        C182   1.353       .  A
C175        C183   1.387       .  A
C175        C191   1.413       .  A
C176        C192   1.413       .  A
C176        C184   1.388       .  A
C177        C185   1.388       .  A
C177        C194   1.416       .  A
C178        C193   1.415       .  A
C178        C186   1.387       .  A
C179        C191   1.411       .  A
C179        C187   1.385       .  A
C180        C194   1.413       .  A
C180        C188   1.387       .  A
C181        C189   1.385       .  A
C181        C192   1.413       .  A
C182        C190   1.385       .  A
C182        C193   1.414       .  A
C183        C184   1.373       .  A
C183        H195   1.082       .  S
C184        H196   1.082       .  S
C185        C186   1.375       .  A
C185        H197   1.082       .  S
C186        H198   1.082       .  S
C187        C188   1.374       .  A
C187        H199   1.082       .  S
C188        H200   1.082       .  S
C189        C190   1.375       .  A
C189        H201   1.082       .  S
C190        H202   1.082       .  S
C191       C1180   1.488       .  S
C192       C1160   1.488       .  S
C193       C1190   1.494       .  S
C194       C1173   1.489       .  S
Zr205       O206   2.443       .  S
Zr205       O207   2.430       .  S
Zr205       O208   2.443       .  S
Zr205       O211   2.431       .  S
Zr205       O213   2.375       .  S
Zr205       O214   2.383       .  S
Zr205       O215   2.408       .  S
Zr205       O216   2.404       .  S
O206        H262   0.991       .  S
O206        H270   0.990       .  S
O207        C227   1.284       .  A
O208        C229   1.285       .  A
O209       Zr219   2.439       .  S
O209        C228   1.285       .  A
O210       Zr218   2.434       .  S
O210        C229   1.284       .  A
O211        C228   1.285       .  A
O212       Zr220   2.392       .  S
O212        C227   1.275       .  A
O213       Zr218   2.390       .  S
O213       Zr220   2.382       .  S
O214       Zr219   2.391       .  S
O214       Zr220   2.378       .  S
O214        H249   0.967       .  S
O215       Zr218   2.399       .  S
O215       Zr235   2.391       .  S
O215        H252   0.965       .  S
O216       Zr219   2.388       .  S
O216       Zr235   2.395       .  S
Zr217       O242   2.442   1_554  S
Zr217       O236   2.445       .  S
Zr217       O244   2.436   1_554  S
Zr217       O232   2.445   1_554  S
Zr217       O223   2.402       .  S
Zr217       O224   2.412       .  S
Zr217       O225   2.382       .  S
Zr217       O226   2.387       .  S
Zr218       O237   2.435       .  S
Zr218       O230   2.435       .  S
Zr218       O231   2.412       .  S
Zr218       O224   2.405       .  S
Zr218       O225   2.399       .  S
Zr219       O221   2.437       .  S
Zr219       O243   2.438       .  S
Zr219       O245   2.419       .  S
Zr219       O223   2.389       .  S
Zr219       O226   2.398       .  S
Zr220       O246   2.434       .  S
Zr220       O247   2.435       .  S
Zr220       O222   2.438       .  S
Zr220       O223   2.382       .  S
Zr220       O224   2.380       .  S
O221        H258   0.990       .  S
O222        H253   0.990       .  S
O222        H267   0.990       .  S
O224        H250   0.966       .  S
O225       Zr235   2.382       .  S
O226       Zr235   2.380       .  S
O226        H251   0.967       .  S
C227       C1153   1.475       .  S
C228       C1290   1.487       .  S
C229       C1193   1.489       .  S
O230        H266   0.990       .  S
O231        C233   1.281       .  A
O232        C233   1.285   1_556  A
C233       C1130   1.470   1_554  S
O234       Zr235   2.440       .  S
O234        H263   0.990       .  S
Zr235       O238   2.437       .  S
Zr235       O239   2.440       .  S
Zr235       O240   2.413       .  S
O236        C241   1.285       .  A
O237        H254   0.990       .  S
O237        H269   0.990       .  S
O238        H255   0.990       .  S
O239        H259   0.990       .  S
O239        H268   0.990       .  S
O240        C241   1.281       .  A
C241       C1350   1.485   1_554  S
O242        H261   0.991       .  S
O242        H265   0.990       .  S
O243        H257   0.990       .  S
O243        H264   0.990       .  S
O244        C248   1.285   1_556  A
O245        C248   1.283       .  A
O246        H256   0.990       .  S
O247        H260   0.990       .  S
C248       C1143   1.472   1_554  S
Zr271       O272   2.441   1_554  S
Zr271       O273   2.440       .  S
Zr271       O274   2.456   1_554  S
Zr271       O277   2.439   1_554  S
Zr271       O279   2.383       .  S
Zr271       O280   2.394       .  S
Zr271       O281   2.408       .  S
Zr271       O282   2.399       .  S
O272        H328   0.990       .  S
O272        H336   0.990       .  S
O273        C293   1.284       .  A
O274        C295   1.287   1_556  A
O275       Zr285   2.414       .  S
O275        C294   1.283       .  A
O276       Zr284   2.415       .  S
O276        C295   1.282       .  A
O277        C294   1.285   1_556  A
O278       Zr286   2.415       .  S
O278        C293   1.281       .  A
O279       Zr284   2.400       .  S
O279       Zr286   2.379       .  S
O280       Zr285   2.395       .  S
O280       Zr286   2.376       .  S
O280        H315   0.966       .  S
O281       Zr284   2.406       .  S
O281       Zr301   2.382       .  S
O281        H318   0.965       .  S
O282       Zr285   2.390       .  S
O282       Zr301   2.375       .  S
Zr283       O308   2.441       .  S
Zr283       O302   2.430       .  S
Zr283       O310   2.427       .  S
Zr283       O298   2.430       .  S
Zr283       O289   2.404       .  S
Zr283       O290   2.404       .  S
Zr283       O291   2.372       .  S
Zr283       O292   2.379       .  S
Zr284       O303   2.434       .  S
Zr284       O296   2.436       .  S
Zr284       O297   2.437       .  S
Zr284       O290   2.393       .  S
Zr284       O291   2.389       .  S
Zr285       O287   2.437       .  S
Zr285       O309   2.437       .  S
Zr285       O311   2.435       .  S
Zr285       O289   2.390       .  S
Zr285       O292   2.387       .  S
Zr286       O312   2.438       .  S
Zr286       O313   2.436       .  S
Zr286       O288   2.437       .  S
Zr286       O289   2.396       .  S
Zr286       O290   2.394       .  S
O287        H324   0.990       .  S
O288        H319   0.990       .  S
O288        H333   0.990       .  S
O290        H316   0.966       .  S
O291       Zr301   2.384       .  S
O292       Zr301   2.383       .  S
O292        H317   0.965       .  S
C293       C1333   1.483   1_554  S
C294       C1100   1.480   1_554  S
C295       C1110   1.481   1_554  S
O296        H332   0.990       .  S
O297        C299   1.285       .  A
O298        C299   1.283       .  A
C299       C1233   1.486       .  S
O300       Zr301   2.437       .  S
O300        H329   0.990       .  S
Zr301       O304   2.437       .  S
Zr301       O305   2.439       .  S
Zr301       O306   2.392       .  S
O302        C307   1.283       .  A
O303        H320   0.990       .  S
O303        H335   0.990       .  S
O304        H321   0.990       .  S
O305        H325   0.990       .  S
O305        H334   0.990       .  S
O306        C307   1.276       .  A
C307       C1123   1.469       .  S
O308        H327   0.990       .  S
O308        H331   0.990       .  S
O309        H323   0.990       .  S
O309        H330   0.990       .  S
O310        C314   1.282       .  A
O311        C314   1.285       .  A
O312        H322   0.990       .  S
O313        H326   0.990       .  S
C314       C1170   1.486       .  S
Zr337       O338   2.443       .  S
Zr337       O339   2.433       .  S
Zr337       O340   2.425       .  S
Zr337       O343   2.431       .  S
Zr337       O345   2.379       .  S
Zr337       O346   2.375       .  S
Zr337       O347   2.409       .  S
Zr337       O348   2.397       .  S
O338        H394   0.990       .  S
O338        H402   0.990       .  S
O339        C359   1.284       .  A
O340        C361   1.282       .  A
O341       Zr351   2.438       .  S
O341        C360   1.285       .  A
O342       Zr350   2.432       .  S
O342        C361   1.284       .  A
O343        C360   1.284       .  A
O344       Zr352   2.399       .  S
O344        C359   1.277       .  A
O345       Zr350   2.395       .  S
O345       Zr352   2.381       .  S
O346       Zr351   2.386       .  S
O346       Zr352   2.382       .  S
O346        H381   0.966       .  S
O347       Zr350   2.397       .  S
O347       Zr367   2.392       .  S
O347        H384   0.965       .  S
O348       Zr351   2.378       .  S
O348       Zr367   2.394       .  S
Zr349       O374   2.441       .  S
Zr349       O368   2.445       .  S
Zr349       O376   2.447       .  S
Zr349       O364   2.446       .  S
Zr349       O355   2.405       .  S
Zr349       O356   2.408       .  S
Zr349       O357   2.385       .  S
Zr349       O358   2.389       .  S
Zr350       O369   2.435       .  S
Zr350       O362   2.435       .  S
Zr350       O363   2.420       .  S
Zr350       O356   2.400       .  S
Zr350       O357   2.396       .  S
Zr351       O353   2.435       .  S
Zr351       O375   2.438       .  S
Zr351       O377   2.399       .  S
Zr351       O355   2.399       .  S
Zr351       O358   2.400       .  S
Zr352       O378   2.434       .  S
Zr352       O379   2.435       .  S
Zr352       O354   2.437       .  S
Zr352       O355   2.387       .  S
Zr352       O356   2.378       .  S
O353        H390   0.990       .  S
O354        H385   0.990       .  S
O354        H399   0.990       .  S
O356        H382   0.966       .  S
O357       Zr367   2.379       .  S
O358       Zr367   2.379       .  S
O358        H383   0.966       .  S
C359       C1080   1.480       .  S
C360       C1203   1.490       .  S
C361       C1183   1.481       .  S
O362        H398   0.990       .  S
O363        C365   1.283       .  A
O364        C365   1.286       .  A
C365       C1073   1.476       .  S
O366       Zr367   2.436       .  S
O366        H395   0.990       .  S
Zr367       O370   2.435       .  S
Zr367       O371   2.440       .  S
Zr367       O372   2.418       .  S
O368        C373   1.284       .  A
O369        H386   0.990       .  S
O369        H401   0.990       .  S
O370        H387   0.990       .  S
O371        H391   0.990       .  S
O371        H400   0.990       .  S
O372        C373   1.282       .  A
C373       C1393   1.486       .  S
O374        H393   0.990       .  S
O374        H397   0.990       .  S
O375        H389   0.990       .  S
O375        H396   0.990       .  S
O376        C380   1.286       .  A
O377        C380   1.280       .  A
O378        H388   0.990       .  S
O379        H392   0.990       .  S
C380       C1090   1.474       .  S
Zr403       O404   2.442       .  S
Zr403       O405   2.445       .  S
Zr403       O406   2.443       .  S
Zr403       O409   2.433       .  S
Zr403       O411   2.385       .  S
Zr403       O412   2.385       .  S
Zr403       O413   2.406       .  S
Zr403       O414   2.399       .  S
O404        H460   0.990       .  S
O404        H468   0.991       .  S
O405        C425   1.285       .  A
O406        C427   1.285       .  A
O407       Zr417   2.422       .  S
O407        C426   1.284       .  A
O408       Zr416   2.426       .  S
O408        C427   1.284       .  A
O409        C426   1.285       .  A
O410       Zr418   2.426       .  S
O410        C425   1.283       .  A
O411       Zr416   2.405       .  S
O411       Zr418   2.382       .  S
O412       Zr417   2.397       .  S
O412       Zr418   2.371       .  S
O412        H447   0.964       .  S
O413       Zr416   2.407       .  S
O413       Zr433   2.382       .  S
O413        H450   0.964       .  S
O414       Zr417   2.393       .  S
O414       Zr433   2.380       .  S
Zr415       O440   2.439       .  S
Zr415       O434   2.438       .  S
Zr415       O442   2.435       .  S
Zr415       O430   2.432       .  S
Zr415       O421   2.401       .  S
Zr415       O422   2.407       .  S
Zr415       O423   2.374       .  S
Zr415       O424   2.378       .  S
Zr416       O435   2.437       .  S
Zr416       O428   2.434       .  S
Zr416       O429   2.455       .  S
Zr416       O422   2.393       .  S
Zr416       O423   2.390       .  S
Zr417       O419   2.435       .  S
Zr417       O441   2.436       .  S
Zr417       O443   2.437       .  S
Zr417       O421   2.394       .  S
Zr417       O424   2.390       .  S
Zr418       O444   2.435       .  S
Zr418       O445   2.436       .  S
Zr418       O420   2.438       .  S
Zr418       O421   2.396       .  S
Zr418       O422   2.395       .  S
O419        H456   0.990       .  S
O420        H451   0.990       .  S
O420        H465   0.990       .  S
O422        H448   0.965       .  S
O423       Zr433   2.385       .  S
O424       Zr433   2.381       .  S
O424        H449   0.965       .  S
C425       C1383   1.490       .  S
C426       C1060   1.473       .  S
C427       C1050   1.477       .  S
O428        H464   0.990       .  S
O429        C431   1.289       .  A
O430        C431   1.284       .  A
C431       C1303   1.493       .  S
O432       Zr433   2.439       .  S
O432        H461   0.991       .  S
Zr433       O436   2.438       .  S
Zr433       O437   2.440       .  S
Zr433       O438   2.388       .  S
O434        C439   1.285       .  A
O435        H452   0.990       .  S
O435        H467   0.990       .  S
O436        H453   0.990       .  S
O437        H457   0.990       .  S
O437        H466   0.990       .  S
O438        C439   1.275       .  A
C439       C1043   1.469       .  S
O440        H459   0.990       .  S
O440        H463   0.990       .  S
O441        H455   0.990       .  S
O441        H462   0.990       .  S
O442        C446   1.283       .  A
O443        C446   1.285       .  A
O444        H454   0.990       .  S
O445        H458   0.990       .  S
C446       C1163   1.488       .  S
Zr469       O470   2.440       .  S
Zr469       O471   2.430       .  S
Zr469       O472   2.449       .  S
Zr469       O475   2.436       .  S
Zr469       O477   2.379       .  S
Zr469       O478   2.382       .  S
Zr469       O479   2.405       .  S
Zr469       O480   2.397       .  S
O470        H526   0.990       .  S
O470        H534   0.990       .  S
O471        C491   1.284       .  A
O472        C493   1.286       .  A
O473       Zr483   2.431       .  S
O473        C492   1.284       .  A
O474       Zr482   2.461       .  S
O474        C493   1.290       .  A
O475        C492   1.285       .  A
O476       Zr484   2.386       .  S
O476        C491   1.274       .  A
O477       Zr482   2.397       .  S
O477       Zr484   2.388       .  S
O478       Zr483   2.389       .  S
O478       Zr484   2.380       .  S
O478        H513   0.965       .  S
O479       Zr482   2.397       .  S
O479       Zr499   2.391       .  S
O479        H516   0.965       .  S
O480       Zr483   2.390       .  S
O480       Zr499   2.393       .  S
Zr481       O506   2.442   1_554  S
Zr481       O500   2.441   1_554  S
Zr481       O508   2.451   1_554  S
Zr481       O496   2.425   1_554  S
Zr481       O487   2.397       .  S
Zr481       O488   2.411       .  S
Zr481       O489   2.386       .  S
Zr481       O490   2.381       .  S
Zr482       O501   2.435       .  S
Zr482       O494   2.435       .  S
Zr482       O495   2.434       .  S
Zr482       O488   2.409       .  S
Zr482       O489   2.399       .  S
Zr483       O485   2.434       .  S
Zr483       O507   2.440       .  S
Zr483       O509   2.416       .  S
Zr483       O487   2.396       .  S
Zr483       O490   2.396       .  S
Zr484       O510   2.436       .  S
Zr484       O511   2.436       .  S
Zr484       O486   2.438       .  S
Zr484       O487   2.386       .  S
Zr484       O488   2.372       .  S
O485        H522   0.990       .  S
O486        H517   0.990       .  S
O486        H531   0.990       .  S
O488        H514   0.965       .  S
O489       Zr499   2.373       .  S
O490       Zr499   2.379       .  S
O490        H515   0.967       .  S
C491       C1033   1.468       .  S
C492       C1213   1.488       .  S
C493       C1270   1.504       .  S
O494        H530   0.990       .  S
O495        C497   1.286       .  A
O496        C497   1.283   1_556  A
C497       C1013   1.468   1_554  S
O498       Zr499   2.439       .  S
O498        H527   0.990       .  S
Zr499       O502   2.437       .  S
Zr499       O503   2.439       .  S
Zr499       O504   2.418       .  S
O500        C505   1.284   1_556  A
O501        H518   0.990       .  S
O501        H533   0.990       .  S
O502        H519   0.990       .  S
O503        H523   0.990       .  S
O503        H532   0.990       .  S
O504        C505   1.282       .  A
C505       C1343   1.488   1_554  S
O506        H525   0.990       .  S
O506        H529   0.990       .  S
O507        H521   0.990       .  S
O507        H528   0.990       .  S
O508        C512   1.286   1_556  A
O509        C512   1.282       .  A
O510        H520   0.990       .  S
O511        H524   0.990       .  S
C512       C1023   1.477   1_554  S
Zr535       O536   2.441       .  S
Zr535       O537   2.446       .  S
Zr535       O538   2.457       .  S
Zr535       O541   2.445       .  S
Zr535       O543   2.386       .  S
Zr535       O544   2.390       .  S
Zr535       O545   2.409       .  S
Zr535       O546   2.404       .  S
O536        H592   0.990       .  S
O536        H600   0.991       .  S
O537        C557   1.286       .  A
O538        C559   1.287       .  A
O539       Zr549   2.412       .  S
O539        C558   1.282       .  A
O540       Zr548   2.422       .  S
O540        C559   1.283       .  A
O541        C558   1.287       .  A
O542       Zr550   2.416       .  S
O542        C557   1.282       .  A
O543       Zr548   2.400       .  S
O543       Zr550   2.380       .  S
O544       Zr549   2.396       .  S
O544       Zr550   2.374       .  S
O544        H579   0.966       .  S
O545       Zr548   2.408       .  S
O545       Zr565   2.382       .  S
O545        H582   0.965       .  S
O546       Zr549   2.391       .  S
O546       Zr565   2.382       .  S
Zr547       O572   2.437       .  S
Zr547       O566   2.421       .  S
Zr547       O574   2.434       .  S
Zr547       O562   2.435       .  S
Zr547       O553   2.396       .  S
Zr547       O554   2.405       .  S
Zr547       O555   2.376       .  S
Zr547       O556   2.375       .  S
Zr548       O567   2.436       .  S
Zr548       O560   2.434       .  S
Zr548       O561   2.446       .  S
Zr548       O554   2.397       .  S
Zr548       O555   2.395       .  S
Zr549       O551   2.435       .  S
Zr549       O573   2.436       .  S
Zr549       O575   2.441       .  S
Zr549       O553   2.387       .  S
Zr549       O556   2.383       .  S
Zr550       O576   2.435       .  S
Zr550       O577   2.437       .  S
Zr550       O552   2.437       .  S
Zr550       O553   2.393       .  S
Zr550       O554   2.390       .  S
O551        H588   0.990       .  S
O552        H583   0.990       .  S
O552        H597   0.990       .  S
O554        H580   0.965       .  S
O555       Zr565   2.386       .  S
O556       Zr565   2.382       .  S
O556        H581   0.964       .  S
C557       C1363   1.485       .  S
C558        C990   1.475       .  S
C559        C980   1.482       .  S
O560        H596   0.990       .  S
O561        C563   1.287       .  A
O562        C563   1.283       .  A
C563       C1223   1.491       .  S
O564       Zr565   2.438       .  S
O564        H593   0.990       .  S
Zr565       O568   2.437       .  S
Zr565       O569   2.442       .  S
Zr565       O570   2.395       .  S
O566        C571   1.281       .  A
O567        H584   0.990       .  S
O567        H599   0.990       .  S
O568        H585   0.990       .  S
O569        H589   0.990       .  S
O569        H598   0.990       .  S
O570        C571   1.277       .  A
C571       C1000   1.473       .  S
O572        H591   0.990       .  S
O572        H595   0.990       .  S
O573        H587   0.990       .  S
O573        H594   0.990       .  S
O574        C578   1.284       .  A
O575        C578   1.286       .  A
O576        H586   0.990       .  S
O577        H590   0.990       .  S
C578       C1243   1.493       .  S
Zr601       O602   2.440       .  S
Zr601       O603   2.425       .  S
Zr601       O604   2.441       .  S
Zr601       O607   2.424       .  S
Zr601       O609   2.376       .  S
Zr601       O610   2.380       .  S
Zr601       O611   2.401       .  S
Zr601       O612   2.396       .  S
O602        H658   0.990       .  S
O602        H666   0.990       .  S
O603        C623   1.283       .  A
O604        C625   1.285       .  A
O605       Zr615   2.443       .  S
O605        C624   1.287       .  A
O606       Zr614   2.441       .  S
O606        C625   1.286       .  A
O607        C624   1.283       .  A
O608       Zr616   2.404       .  S
O608        C623   1.278       .  A
O609       Zr614   2.391       .  S
O609       Zr616   2.383       .  S
O610       Zr615   2.380       .  S
O610       Zr616   2.378       .  S
O610        H645   0.965       .  S
O611       Zr614   2.399       .  S
O611       Zr631   2.396       .  S
O611        H648   0.966       .  S
O612       Zr615   2.390       .  S
O612       Zr631   2.393       .  S
Zr613       O638   2.440   1_554  S
Zr613       O632   2.449       .  S
Zr613       O640   2.449   1_554  S
Zr613       O628   2.450   1_554  S
Zr613       O619   2.406       .  S
Zr613       O620   2.409       .  S
Zr613       O621   2.380       .  S
Zr613       O622   2.388       .  S
Zr614       O633   2.434       .  S
Zr614       O626   2.437       .  S
Zr614       O627   2.421       .  S
Zr614       O620   2.401       .  S
Zr614       O621   2.399       .  S
Zr615       O617   2.437       .  S
Zr615       O639   2.438       .  S
Zr615       O641   2.417       .  S
Zr615       O619   2.399       .  S
Zr615       O622   2.400       .  S
Zr616       O642   2.436       .  S
Zr616       O643   2.435       .  S
Zr616       O618   2.438       .  S
Zr616       O619   2.389       .  S
Zr616       O620   2.380       .  S
O617        H654   0.990       .  S
O618        H649   0.990       .  S
O618        H663   0.990       .  S
O620        H646   0.965       .  S
O621       Zr631   2.378       .  S
O622       Zr631   2.377       .  S
O622        H647   0.966       .  S
C623        C973   1.476       .  S
C624       C1253   1.488       .  S
C625       C1310   1.491       .  S
O626        H662   0.990       .  S
O627        C629   1.284       .  A
O628        C629   1.288   1_556  A
C629        C953   1.477   1_554  S
O630       Zr631   2.439       .  S
O630        H659   0.991       .  S
Zr631       O634   2.438       .  S
Zr631       O635   2.440       .  S
Zr631       O636   2.412       .  S
O632        C637   1.286       .  A
O633        H650   0.990       .  S
O633        H665   0.990       .  S
O634        H651   0.990       .  S
O635        H655   0.990       .  S
O635        H664   0.990       .  S
O636        C637   1.281       .  A
C637       C1323   1.488   1_554  S
O638        H657   0.990       .  S
O638        H661   0.990       .  S
O639        H653   0.990       .  S
O639        H660   0.990       .  S
O640        C644   1.287   1_556  A
O641        C644   1.282       .  A
O642        H652   0.990       .  S
O643        H656   0.990       .  S
C644        C960   1.475   1_554  S
Zr667       O668   2.442       .  S
Zr667       O669   2.438       .  S
Zr667       O670   2.442       .  S
Zr667       O673   2.451       .  S
Zr667       O675   2.388       .  S
Zr667       O676   2.384       .  S
Zr667       O677   2.412       .  S
Zr667       O678   2.397       .  S
O668        H724   0.990       .  S
O668        H732   0.990       .  S
O669        C689   1.284       .  A
O670        C691   1.285       .  A
O671       Zr681   2.424       .  S
O671        C690   1.284       .  A
O672       Zr680   2.412       .  S
O672        C691   1.282       .  A
O673        C690   1.288       .  A
O674       Zr682   2.412       .  S
O674        C689   1.280       .  A
O675       Zr680   2.403       .  S
O675       Zr682   2.378       .  S
O676       Zr681   2.395       .  S
O676       Zr682   2.377       .  S
O676        H711   0.964       .  S
O677       Zr680   2.409       .  S
O677       Zr697   2.381       .  S
O677        H714   0.965       .  S
O678       Zr681   2.389       .  S
O678       Zr697   2.384       .  S
Zr679       O704   2.442       .  S
Zr679       O698   2.430       .  S
Zr679       O706   2.435       .  S
Zr679       O694   2.448       .  S
Zr679       O685   2.401       .  S
Zr679       O686   2.402       .  S
Zr679       O687   2.376       .  S
Zr679       O688   2.382       .  S
Zr680       O699   2.436       .  S
Zr680       O692   2.435       .  S
Zr680       O693   2.450       .  S
Zr680       O686   2.389       .  S
Zr680       O687   2.388       .  S
Zr681       O683   2.434       .  S
Zr681       O705   2.435       .  S
Zr681       O707   2.431       .  S
Zr681       O685   2.395       .  S
Zr681       O688   2.387       .  S
Zr682       O708   2.435       .  S
Zr682       O709   2.435       .  S
Zr682       O684   2.438       .  S
Zr682       O685   2.394       .  S
Zr682       O686   2.387       .  S
O683        H720   0.990       .  S
O684        H715   0.990       .  S
O684        H729   0.990       .  S
O686        H712   0.965       .  S
O687       Zr697   2.388       .  S
O688       Zr697   2.382       .  S
O688        H713   0.966       .  S
C689       C1370   1.478       .  S
C690        C920   1.481       .  S
C691        C940   1.474       .  S
O692        H728   0.990       .  S
O693        C695   1.288       .  A
O694        C695   1.287       .  A
C695       C1260   1.498       .  S
O696       Zr697   2.439       .  S
O696        H725   0.990       .  S
Zr697       O700   2.437       .  S
Zr697       O701   2.440       .  S
Zr697       O702   2.392       .  S
O698        C703   1.283       .  A
O699        H716   0.990       .  S
O699        H731   0.990       .  S
O700        H717   0.990       .  S
O701        H721   0.990       .  S
O701        H730   0.990       .  S
O702        C703   1.276       .  A
C703        C930   1.473       .  S
O704        H723   0.990       .  S
O704        H727   0.991       .  S
O705        H719   0.990       .  S
O705        H726   0.990       .  S
O706        C710   1.284       .  A
O707        C710   1.284       .  A
O708        H718   0.990       .  S
O709        H722   0.990       .  S
C710       C1280   1.486       .  S
O733       Zr745   2.406       .  S
O733        C735   1.283       .  A
O734       Zr771   2.428   1_545  S
O734        C735   1.287       .  A
C735        C970   1.478       .  S
O736       Zr748   2.396       .  S
O736        C738   1.280       .  A
O737       Zr772   2.429   1_445  S
O737        C738   1.288       .  A
C738       C1040   1.469       .  S
O739       Zr748   2.402       .  S
O739        C741   1.281       .  A
O740       Zr771   2.431   1_445  S
O740        C741   1.288       .  A
C741       C1150   1.474       .  S
O742       Zr745   2.401       .  S
O742        C744   1.282       .  A
O743       Zr772   2.427   1_545  S
O743        C744   1.287       .  A
C744        C933   1.475       .  S
Zr745       O746   2.434       .  S
Zr745       O747   2.436       .  S
Zr745       O751   2.360       .  S
Zr745       O752   2.363       .  S
Zr745       O775   2.358   1_545  S
Zr745       O777   2.354       .  S
O746        H789   0.990       .  S
O747        H788   0.990       .  S
O747        H792   0.990       .  S
Zr748       O749   2.434       .  S
Zr748       O750   2.435       .  S
Zr748       O752   2.362   1_455  S
Zr748       O751   2.362   1_455  S
Zr748       O776   2.359   1_545  S
Zr748       O778   2.358   1_545  S
O749        H790   0.990       .  S
O749        H793   0.990       .  S
O750        H783   0.990       .  S
O751       Zr771   2.378   1_545  S
O752       Zr772   2.384   1_545  S
O752        H779   0.967   1_655  S
O753       Zr765   2.405       .  S
O753        C755   1.283       .  A
O754       Zr772   2.417       .  S
O754        C755   1.285       .  A
C755       C1003   1.474       .  S
O756       Zr768   2.405       .  S
O756        C758   1.283       .  A
O757       Zr771   2.421   1_455  S
O757        C758   1.286       .  A
C758       C1120   1.470       .  S
O759       Zr768   2.407       .  S
O759        C761   1.283       .  A
O760       Zr772   2.433   1_455  S
O760        C761   1.288       .  A
C761       C1083   1.479       .  S
O762       Zr765   2.404       .  S
O762        C764   1.282       .  A
O763       Zr771   2.426       .  S
O763        C764   1.287       .  A
C764       C1030   1.471       .  S
Zr765       O766   2.435       .  S
Zr765       O767   2.435       .  S
Zr765       O773   2.360       .  S
Zr765       O774   2.361       .  S
Zr765       O777   2.363   1_565  S
Zr765       O775   2.357       .  S
O766        H786   0.990       .  S
O766        H791   0.990       .  S
O767        H787   0.990       .  S
Zr768       O769   2.435       .  S
Zr768       O770   2.434       .  S
Zr768       O774   2.359   1_455  S
Zr768       O773   2.360   1_455  S
Zr768       O778   2.362       .  S
Zr768       O776   2.362       .  S
O769        H785   0.990       .  S
O770        H784   0.990       .  S
O770        H794   0.990       .  S
Zr771       O774   2.384       .  S
Zr771       O776   2.383   1_655  S
Zr771       O777   2.383   1_565  S
Zr772       O773   2.387       .  S
Zr772       O775   2.382       .  S
Zr772       O778   2.380   1_655  S
O773        H781   0.966       .  S
O776        H780   0.967       .  S
O777        H782   0.966       .  S
O795       Zr807   2.421       .  S
O795        C797   1.283       .  A
O796       Zr833   2.441       .  S
O796        C797   1.289       .  A
C797       C1113   1.463       .  S
O798       Zr810   2.418       .  S
O798        C800   1.283       .  A
O799       Zr834   2.439   1_545  S
O799        C800   1.289       .  A
C800        C950   1.463       .  S
O801       Zr810   2.431       .  S
O801        C803   1.285       .  A
O802       Zr833   2.434   1_545  S
O802        C803   1.287       .  A
C803       C1140   1.465       .  S
O804       Zr807   2.422       .  S
O804        C806   1.283       .  A
O805       Zr834   2.445       .  S
O805        C806   1.290       .  A
C806       C1020   1.470       .  S
Zr807       O808   2.434       .  S
Zr807       O809   2.441       .  S
Zr807       O813   2.373       .  S
Zr807       O814   2.371       .  S
Zr807       O837   2.362       .  S
Zr807       O839   2.363       .  S
O808        H851   0.990       .  S
O809        H850   0.990       .  S
O809        H854   0.990       .  S
Zr810       O811   2.434       .  S
Zr810       O812   2.434       .  S
Zr810       O814   2.372   1_545  S
Zr810       O813   2.366   1_545  S
Zr810       O838   2.359       .  S
Zr810       O840   2.369       .  S
O811        H852   0.990       .  S
O811        H855   0.990       .  S
O812        H845   0.990       .  S
O813       Zr833   2.384       .  S
O814       Zr834   2.394       .  S
O814        H841   0.967       .  S
O815       Zr827   2.421       .  S
O815        C817   1.284       .  A
O816       Zr834   2.442       .  S
O816        C817   1.289       .  A
C817        C983   1.464       .  S
O818       Zr830   2.421       .  S
O818        C820   1.284       .  A
O819       Zr833   2.438   1_545  S
O819        C820   1.288       .  A
C820       C1053   1.462       .  S
O821       Zr830   2.432       .  S
O821        C823   1.285       .  A
O822       Zr834   2.446   1_545  S
O822        C823   1.290       .  A
C823        C923   1.473       .  S
O824       Zr827   2.429       .  S
O824        C826   1.285       .  A
O825       Zr833   2.427       .  S
O825        C826   1.286       .  A
C826       C1093   1.459       .  S
Zr827       O828   2.436       .  S
Zr827       O829   2.432       .  S
Zr827       O835   2.370   1_565  S
Zr827       O836   2.363   1_565  S
Zr827       O839   2.364       .  S
Zr827       O837   2.368       .  S
O828        H848   0.990       .  S
O828        H853   0.990       .  S
O829        H849   0.990       .  S
Zr830       O831   2.434       .  S
Zr830       O832   2.438       .  S
Zr830       O836   2.373       .  S
Zr830       O835   2.368       .  S
Zr830       O840   2.363       .  S
Zr830       O838   2.365       .  S
O831        H847   0.990       .  S
O832        H846   0.990       .  S
O832        H856   0.990       .  S
Zr833       O836   2.386   1_565  S
Zr833       O838   2.389   1_565  S
Zr833       O839   2.388       .  S
Zr834       O835   2.392   1_565  S
Zr834       O837   2.384       .  S
Zr834       O840   2.388   1_565  S
O835        H843   0.966       .  S
O838        H842   0.966       .  S
O839        H844   0.966       .  S
O857       Zr869   2.431       .  S
O857        C859   1.285       .  A
O858       Zr895   2.424   1_455  S
O858        C859   1.285       .  A
C859       C1133   1.459       .  S
O860       Zr872   2.420       .  S
O860        C862   1.284       .  A
O861       Zr896   2.423       .  S
O861        C862   1.285       .  A
C862       C1010   1.458       .  S
O863       Zr872   2.435       .  S
O863        C865   1.286       .  A
O864       Zr895   2.431       .  S
O864        C865   1.287       .  A
C865        C963   1.467       .  S
O866       Zr869   2.435       .  S
O866        C868   1.287       .  A
O867       Zr896   2.421   1_455  S
O867        C868   1.284       .  A
C868       C1103   1.461       .  S
Zr869       O870   2.435       .  S
Zr869       O871   2.436       .  S
Zr869       O875   2.371   1_455  S
Zr869       O876   2.365   1_455  S
Zr869       O899   2.367       .  S
Zr869       O901   2.367       .  S
O870        H913   0.990       .  S
O871        H912   0.990       .  S
O871        H916   0.990       .  S
Zr872       O873   2.437       .  S
Zr872       O874   2.434       .  S
Zr872       O876   2.367       .  S
Zr872       O875   2.367       .  S
Zr872       O900   2.360       .  S
Zr872       O902   2.368       .  S
O873        H914   0.990       .  S
O873        H917   0.990       .  S
O874        H907   0.990       .  S
O875       Zr895   2.389       .  S
O876       Zr896   2.390       .  S
O876        H903   0.967       .  S
O877       Zr889   2.418       .  S
O877        C879   1.283       .  A
O878       Zr896   2.429   1_455  S
O878        C879   1.286       .  A
C879       C1070   1.459       .  S
O880       Zr892   2.416       .  S
O880        C882   1.283       .  A
O881       Zr895   2.430       .  S
O881        C882   1.286       .  A
C882        C943   1.456       .  S
O883       Zr892   2.433       .  S
O883        C885   1.285       .  A
O884       Zr896   2.423       .  S
O884        C885   1.285       .  A
C885        C993   1.463       .  S
O886       Zr889   2.419       .  S
O886        C888   1.283       .  A
O887       Zr895   2.443   1_455  S
O887        C888   1.289       .  A
C888       C1063   1.466       .  S
Zr889       O890   2.434       .  S
Zr889       O891   2.435       .  S
Zr889       O897   2.367   1_455  S
Zr889       O898   2.369   1_455  S
Zr889       O901   2.363       .  S
Zr889       O899   2.365       .  S
O890        H910   0.990       .  S
O890        H915   0.990       .  S
O891        H911   0.990       .  S
Zr892       O893   2.435       .  S
Zr892       O894   2.436       .  S
Zr892       O898   2.374       .  S
Zr892       O897   2.366       .  S
Zr892       O902   2.360       .  S
Zr892       O900   2.367       .  S
O893        H909   0.990       .  S
O894        H908   0.990       .  S
O894        H918   0.990       .  S
Zr895       O898   2.385       .  S
Zr895       O900   2.390       .  S
Zr895       O901   2.388   1_655  S
Zr896       O897   2.384       .  S
Zr896       O899   2.380   1_655  S
Zr896       O902   2.384       .  S
O897        H905   0.966       .  S
O900        H904   0.966       .  S
O901        H906   0.966       .  S
C919        C920   1.408       .  A
C919        C924   1.401       .  A
C919        H926   1.083       .  S
C920        C921   1.406       .  A
C921        C922   1.400       .  A
C921        F928   1.357       .  S
C922        C923   1.404       .  A
C922        H927   1.084       .  S
C923        C924   1.404       .  A
C924        F925   1.358       .  S
C929        C930   1.409       .  A
C929        C934   1.397       .  A
C929        H936   1.083       .  S
C930        C931   1.404       .  A
C931        C932   1.385       .  A
C931        F938   1.358       .  S
C932        C933   1.407       .  A
C932        H937   1.083       .  S
C933        C934   1.405       .  A
C934        F935   1.357       .  S
C939        C940   1.407       .  A
C939        C944   1.391       .  A
C939        H946   1.083       .  S
C940        C941   1.408       .  A
C941        C942   1.399       .  A
C941        F948   1.358       .  S
C942        C943   1.403       .  A
C942        H947   1.084       .  S
C943        C944   1.398       .  A
C944        F945   1.358       .  S
C949        C950   1.404       .  A
C949        C954   1.400       .  A
C949        H956   1.084       .  S
C950        C951   1.400       .  A
C951        C952   1.396       .  A
C951        F958   1.357       .  S
C952        C953   1.407       .  A
C952        H957   1.083   1_556  S
C953        C954   1.406       .  A
C954        F955   1.357       .  S
C959        C960   1.402       .  A
C959        C964   1.397       .  A
C959        H966   1.083       .  S
C960        C961   1.410       .  A
C961        C962   1.400       .  A
C961        F968   1.358   1_556  S
C962        C963   1.401       .  A
C962        H967   1.083       .  S
C963        C964   1.404       .  A
C964        F965   1.358       .  S
C969        C970   1.408       .  A
C969        C974   1.388       .  A
C969        H976   1.083       .  S
C970        C971   1.406       .  A
C971        C972   1.397       .  A
C971        F978   1.357       .  S
C972        C973   1.408       .  A
C972        H977   1.083       .  S
C973        C974   1.405       .  A
C974        F975   1.358       .  S
C979        C980   1.406       .  A
C979        C984   1.402       .  A
C979        H986   1.083       .  S
C980        C981   1.411       .  A
C981        C982   1.395       .  A
C981        F988   1.357       .  S
C982        C983   1.397       .  A
C982        H987   1.084       .  S
C983        C984   1.405       .  A
C984        F985   1.358       .  S
C989        C990   1.407       .  A
C989        C994   1.396       .  A
C989        H996   1.084       .  S
C990        C991   1.406       .  A
C991        C992   1.399       .  A
C991        F998   1.357       .  S
C992        C993   1.402       .  A
C992        H997   1.084       .  S
C993        C994   1.401       .  A
C994        F995   1.358       .  S
C999       C1000   1.408       .  A
C999       C1004   1.396       .  A
C999       H1006   1.083       .  S
C1000      C1001   1.405       .  A
C1001      C1002   1.385       .  A
C1001      F1008   1.358       .  S
C1002      C1003   1.406       .  A
C1002      H1007   1.083       .  S
C1003      C1004   1.407       .  A
C1004      F1005   1.358       .  S
C1009      C1010   1.402       .  A
C1009      C1014   1.395       .  A
C1009      H1016   1.084       .  S
C1010      C1011   1.402       .  A
C1011      C1012   1.396       .  A
C1011      F1018   1.358       .  S
C1012      C1013   1.404       .  A
C1012      H1017   1.084       .  S
C1013      C1014   1.405       .  A
C1014      F1015   1.358       .  S
C1019      C1020   1.405       .  A
C1019      C1024   1.399       .  A
C1019      H1026   1.084       .  S
C1020      C1021   1.402       .  A
C1021      C1022   1.400       .  A
C1021      F1028   1.357       .  S
C1022      C1023   1.407       .  A
C1022      H1027   1.083       .  S
C1023      C1024   1.405       .  A
C1024      F1025   1.357       .  S
C1029      C1030   1.403       .  A
C1029      C1034   1.397       .  A
C1029      H1036   1.083       .  S
C1030      C1031   1.410       .  A
C1031      C1032   1.385       .  A
C1031      F1038   1.358       .  S
C1032      C1033   1.399       .  A
C1032      H1037   1.084       .  S
C1033      C1034   1.410       .  A
C1034      F1035   1.358       .  S
C1039      C1040   1.402       .  A
C1039      C1044   1.397       .  A
C1039      H1046   1.083       .  S
C1040      C1041   1.410       .  A
C1041      C1042   1.387       .  A
C1041      F1048   1.358       .  S
C1042      C1043   1.398       .  A
C1042      H1047   1.084       .  S
C1043      C1044   1.411       .  A
C1044      F1045   1.358       .  S
C1049      C1050   1.407       .  A
C1049      C1054   1.396       .  A
C1049      H1056   1.083       .  S
C1050      C1051   1.407       .  A
C1051      C1052   1.398       .  A
C1051      F1058   1.357       .  S
C1052      C1053   1.402       .  A
C1052      H1057   1.084       .  S
C1053      C1054   1.400       .  A
C1054      F1055   1.357       .  S
C1059      C1060   1.403       .  A
C1059      C1064   1.396       .  A
C1059      H1066   1.084       .  S
C1060      C1061   1.408       .  A
C1061      C1062   1.398       .  A
C1061      F1068   1.358       .  S
C1062      C1063   1.401       .  A
C1062      H1067   1.084       .  S
C1063      C1064   1.406       .  A
C1064      F1065   1.358       .  S
C1069      C1070   1.398       .  A
C1069      C1074   1.395       .  A
C1069      H1076   1.084       .  S
C1070      C1071   1.404       .  A
C1071      C1072   1.399       .  A
C1071      F1078   1.358       .  S
C1072      C1073   1.405       .  A
C1072      H1077   1.083       .  S
C1073      C1074   1.410       .  A
C1074      F1075   1.358       .  S
C1079      C1080   1.410       .  A
C1079      C1084   1.399       .  A
C1079      H1086   1.083       .  S
C1080      C1081   1.405       .  A
C1081      C1082   1.388       .  A
C1081      F1088   1.358       .  S
C1082      C1083   1.408       .  A
C1082      H1087   1.083       .  S
C1083      C1084   1.406       .  A
C1084      F1085   1.357       .  S
C1089      C1090   1.407       .  A
C1089      C1094   1.392       .  A
C1089      H1096   1.084       .  S
C1090      C1091   1.407       .  A
C1091      C1092   1.400       .  A
C1091      F1098   1.357       .  S
C1092      C1093   1.403       .  A
C1092      H1097   1.084       .  S
C1093      C1094   1.398       .  A
C1094      F1095   1.357       .  S
C1099      C1100   1.407       .  A
C1099      C1104   1.391       .  A
C1099      H1106   1.083   1_556  S
C1100      C1101   1.411       .  A
C1101      C1102   1.402       .  A
C1101      F1108   1.357       .  S
C1102      C1103   1.402       .  A
C1102      H1107   1.084       .  S
C1103      C1104   1.398       .  A
C1104      F1105   1.358       .  S
C1109      C1110   1.406       .  A
C1109      C1114   1.402       .  A
C1109      H1116   1.083       .  S
C1110      C1111   1.411       .  A
C1111      C1112   1.394       .  A
C1111      F1118   1.357   1_556  S
C1112      C1113   1.397       .  A
C1112      H1117   1.084       .  S
C1113      C1114   1.405       .  A
C1114      F1115   1.357       .  S
C1119      C1120   1.406       .  A
C1119      C1124   1.386       .  A
C1119      H1126   1.084       .  S
C1120      C1121   1.405       .  A
C1121      C1122   1.396       .  A
C1121      F1128   1.358       .  S
C1122      C1123   1.408       .  A
C1122      H1127   1.083       .  S
C1123      C1124   1.403       .  A
C1124      F1125   1.358       .  S
C1129      C1130   1.406       .  A
C1129      C1134   1.395       .  A
C1129      H1136   1.084   1_556  S
C1130      C1131   1.404       .  A
C1131      C1132   1.396       .  A
C1131      F1138   1.358       .  S
C1132      C1133   1.402       .  A
C1132      H1137   1.084       .  S
C1133      C1134   1.400       .  A
C1134      F1135   1.358       .  S
C1139      C1140   1.403       .  A
C1139      C1144   1.397       .  A
C1139      H1146   1.084       .  S
C1140      C1141   1.401       .  A
C1141      C1142   1.398       .  A
C1141      F1148   1.357       .  S
C1142      C1143   1.406       .  A
C1142      H1147   1.084   1_556  S
C1143      C1144   1.405       .  A
C1144      F1145   1.358       .  S
C1149      C1150   1.402       .  A
C1149      C1154   1.397       .  A
C1149      H1156   1.083       .  S
C1150      C1151   1.411       .  A
C1151      C1152   1.387       .  A
C1151      F1158   1.358       .  S
C1152      C1153   1.400       .  A
C1152      H1157   1.083       .  S
C1153      C1154   1.412       .  A
C1154      F1155   1.358       .  S
C1159      C1160   1.399       .  A
C1159      C1164   1.395       .  A
C1159      H1166   1.084       .  S
C1160      C1161   1.406       .  A
C1161      C1162   1.403       .  A
C1161      F1168   1.357       .  S
C1162      C1163   1.408       .  A
C1162      H1167   1.083       .  S
C1163      C1164   1.412       .  A
C1164      F1165   1.356       .  S
C1169      C1170   1.408       .  A
C1169      C1174   1.399       .  A
C1169      H1176   1.083       .  S
C1170      C1171   1.412       .  A
C1171      C1172   1.394       .  A
C1171      F1178   1.356       .  S
C1172      C1173   1.401       .  A
C1172      H1177   1.084       .  S
C1173      C1174   1.405       .  A
C1174      F1175   1.357       .  S
C1179      C1180   1.405       .  A
C1179      C1184   1.400       .  A
C1179      H1186   1.083       .  S
C1180      C1181   1.404       .  A
C1181      C1182   1.394       .  A
C1181      F1188   1.358       .  S
C1182      C1183   1.407       .  A
C1182      H1187   1.083       .  S
C1183      C1184   1.408       .  A
C1184      F1185   1.357       .  S
C1189      C1190   1.406       .  A
C1189      C1194   1.403       .  A
C1189      H1196   1.083       .  S
C1190      C1191   1.404       .  A
C1191      C1192   1.396       .  A
C1191      F1198   1.357       .  S
C1192      C1193   1.408       .  A
C1192      H1197   1.083       .  S
C1193      C1194   1.412       .  A
C1194      F1195   1.358       .  S
C1199      C1200   1.405       .  A
C1199      C1204   1.402       .  A
C1199      H1206   1.083       .  S
C1200      C1201   1.403       .  A
C1201      C1202   1.396       .  A
C1201      F1208   1.358       .  S
C1202      C1203   1.408       .  A
C1202      H1207   1.083       .  S
C1203      C1204   1.412       .  A
C1204      F1205   1.357       .  S
C1209      C1210   1.401       .  A
C1209      C1214   1.395       .  A
C1209      H1216   1.084       .  S
C1210      C1211   1.406       .  A
C1211      C1212   1.402       .  A
C1211      F1218   1.358       .  S
C1212      C1213   1.409       .  A
C1212      H1217   1.083       .  S
C1213      C1214   1.411       .  A
C1214      F1215   1.356       .  S
C1219      C1220   1.400       .  A
C1219      C1224   1.395       .  A
C1219      H1226   1.083       .  S
C1220      C1221   1.408       .  A
C1221      C1222   1.402       .  A
C1221      F1228   1.358       .  S
C1222      C1223   1.407       .  A
C1222      H1227   1.083       .  S
C1223      C1224   1.414       .  A
C1224      F1225   1.355       .  S
C1229      C1230   1.405       .  A
C1229      C1234   1.400       .  A
C1229      H1236   1.083       .  S
C1230      C1231   1.405       .  A
C1231      C1232   1.396       .  A
C1231      F1238   1.358       .  S
C1232      C1233   1.408       .  A
C1232      H1237   1.083       .  S
C1233      C1234   1.410       .  A
C1234      F1235   1.357       .  S
C1239      C1240   1.402       .  A
C1239      C1244   1.397       .  A
C1239      H1246   1.083       .  S
C1240      C1241   1.408       .  A
C1241      C1242   1.404       .  A
C1241      F1248   1.357       .  S
C1242      C1243   1.409       .  A
C1242      H1247   1.083       .  S
C1243      C1244   1.413       .  A
C1244      F1245   1.355       .  S
C1249      C1250   1.405       .  A
C1249      C1254   1.401       .  A
C1249      H1256   1.083       .  S
C1250      C1251   1.404       .  A
C1251      C1252   1.397       .  A
C1251      F1258   1.358       .  S
C1252      C1253   1.409       .  A
C1252      H1257   1.083       .  S
C1253      C1254   1.410       .  A
C1254      F1255   1.357       .  S
C1259      C1260   1.410       .  A
C1259      C1264   1.406       .  A
C1259      H1266   1.083       .  S
C1260      C1261   1.413       .  A
C1261      C1262   1.401       .  A
C1261      F1268   1.357       .  S
C1262      C1263   1.403       .  A
C1262      H1267   1.083       .  S
C1263      C1264   1.407       .  A
C1264      F1265   1.357       .  S
C1269      C1270   1.409       .  A
C1269      C1274   1.407       .  A
C1269      H1276   1.083       .  S
C1270      C1271   1.415       .  A
C1271      C1272   1.401       .  A
C1271      F1278   1.355       .  S
C1272      C1273   1.404       .  A
C1272      H1277   1.083       .  S
C1273      C1274   1.411       .  A
C1274      F1275   1.357       .  S
C1279      C1280   1.408       .  A
C1279      C1284   1.396       .  A
C1279      H1286   1.083       .  S
C1280      C1281   1.410       .  A
C1281      C1282   1.401       .  A
C1281      F1288   1.357       .  S
C1282      C1283   1.405       .  A
C1282      H1287   1.083       .  S
C1283      C1284   1.404       .  A
C1284      F1285   1.357       .  S
C1289      C1290   1.407       .  A
C1289      C1294   1.396       .  A
C1289      H1296   1.083       .  S
C1290      C1291   1.411       .  A
C1291      C1292   1.403       .  A
C1291      F1298   1.357       .  S
C1292      C1293   1.404       .  A
C1292      H1297   1.083       .  S
C1293      C1294   1.404       .  A
C1294      F1295   1.358       .  S
C1299      C1300   1.401       .  A
C1299      C1304   1.398       .  A
C1299      H1306   1.084       .  S
C1300      C1301   1.407       .  A
C1301      C1302   1.404       .  A
C1301      F1308   1.357       .  S
C1302      C1303   1.408       .  A
C1302      H1307   1.083       .  S
C1303      C1304   1.414       .  A
C1304      F1305   1.356       .  S
C1309      C1310   1.408       .  A
C1309      C1314   1.405       .  A
C1309      H1316   1.083       .  S
C1310      C1311   1.411       .  A
C1311      C1312   1.396       .  A
C1311      F1318   1.355       .  S
C1312      C1313   1.401       .  A
C1312      H1317   1.083       .  S
C1313      C1314   1.409       .  A
C1314      F1315   1.357       .  S
C1319      C1320   1.404       .  A
C1319      C1324   1.406       .  A
C1319      H1326   1.083       .  S
C1320      C1321   1.402       .  A
C1321      C1322   1.392   1_556  A
C1321      F1328   1.358   1_556  S
C1322      C1323   1.407   1_554  A
C1322      H1327   1.083       .  S
C1323      C1324   1.412       .  A
C1324      F1325   1.357       .  S
C1329      C1330   1.403       .  A
C1329      C1334   1.404       .  A
C1329      H1336   1.083       .  S
C1330      C1331   1.404       .  A
C1331      C1332   1.393   1_556  A
C1331      F1338   1.358       .  S
C1332      C1333   1.405   1_554  A
C1332      H1337   1.083       .  S
C1333      C1334   1.411       .  A
C1334      F1335   1.357       .  S
C1339      C1340   1.405       .  A
C1339      C1344   1.407       .  A
C1339      H1346   1.083       .  S
C1340      C1341   1.402       .  A
C1341      C1342   1.392   1_556  A
C1341      F1348   1.358   1_556  S
C1342      C1343   1.406   1_554  A
C1342      H1347   1.083       .  S
C1343      C1344   1.413       .  A
C1344      F1345   1.357       .  S
C1349      C1350   1.406   1_554  A
C1349      C1354   1.394   1_554  A
C1349      H1356   1.083       .  S
C1350      C1351   1.411       .  A
C1351      C1352   1.405       .  A
C1351      F1358   1.357       .  S
C1352      C1353   1.404       .  A
C1352      H1357   1.083       .  S
C1353      C1354   1.404       .  A
C1354      F1355   1.358   1_556  S
C1359      C1360   1.401       .  A
C1359      C1364   1.394       .  A
C1359      H1366   1.084       .  S
C1360      C1361   1.406       .  A
C1361      C1362   1.405       .  A
C1361      F1368   1.357       .  S
C1362      C1363   1.408       .  A
C1362      H1367   1.083       .  S
C1363      C1364   1.410       .  A
C1364      F1365   1.358       .  S
C1369      C1370   1.407       .  A
C1369      C1374   1.402       .  A
C1369      H1376   1.083       .  S
C1370      C1371   1.408       .  A
C1371      C1372   1.393       .  A
C1371      F1378   1.358       .  S
C1372      C1373   1.403       .  A
C1372      H1377   1.084       .  S
C1373      C1374   1.405       .  A
C1374      F1375   1.357       .  S
C1379      C1380   1.404       .  A
C1379      C1384   1.407       .  A
C1379      H1386   1.083       .  S
C1380      C1381   1.403       .  A
C1381      C1382   1.394       .  A
C1381      F1388   1.358       .  S
C1382      C1383   1.407       .  A
C1382      H1387   1.083       .  S
C1383      C1384   1.413       .  A
C1384      F1385   1.357       .  S
C1389      C1390   1.405       .  A
C1389      C1394   1.406       .  A
C1389      H1396   1.083       .  S
C1390      C1391   1.403       .  A
C1391      C1392   1.393       .  A
C1391      F1398   1.358       .  S
C1392      C1393   1.406       .  A
C1392      H1397   1.083       .  S
C1393      C1394   1.412       .  A
C1394      F1395   1.357       .  S
