geometry optimzed in LAMMPS
_audit_creation_date              2020-11-30 
_audit_creation_method            'lammps2cif' 
_symmetry_space_group_name_H-M    'P1' 
_symmetry_Int_Tables_number       1 
_symmetry_cell_setting            triclinic 
loop_ 
_symmetry_equiv_pos_as_xyz 
  x,y,z 
_cell_length_a                    27.16241563815135 
_cell_length_b                    27.234254495698544 
_cell_length_c                    27.194940081439267 
_cell_angle_alpha                 89.42500123761386 
_cell_angle_beta                  89.96892944521713 
_cell_angle_gamma                 89.57562051193325 
loop_ 
_atom_site_label 
_atom_site_type_symbol 
_atom_site_fract_x 
_atom_site_fract_y 
_atom_site_fract_z 
_atom_site_charge 
O1          O  0.70640331  0.69678372  0.17806488    -0.88290
C2          C  0.72087163  0.66731506  0.32175942     0.87740
Mg3        Mg  0.76611512  0.71219435  0.13312122     1.58150
O4          O  0.68029604  0.78480315  0.29971840    -0.88020
O5          O  0.64389873  0.74219203  0.20336305    -0.75350
C6          C  0.91081148  0.84237401  0.27449706     0.92790
O7          O  0.79037782  0.63820795  0.23748712    -0.75160
O8          O  0.90371856  0.80692953  0.24626110    -0.82670
Mg9        Mg  0.70861342  0.63354044  0.22380486     1.57960
C10         C  0.72809347  0.90720335  0.36303867     0.92710
O11         O  0.62563043  0.62227861  0.20511690    -0.80930
H12         H  0.63479483  0.82659287  0.26041370    -0.06270
C13         C  0.81745190  0.76093135  0.32961210     0.87650
O14         O  0.75435053  0.79422652  0.14735544    -0.75440
O15         O  0.69567483  0.67863084  0.28539162    -0.88200
O16         O  0.70615390  0.86738227  0.37525998    -0.81010
C17         C  0.63187798  0.72531963  0.40935119     0.92830
C18         C  0.58532541  0.63645949  0.22459792     0.92680
Mg19       Mg  0.78796146  0.85669373  0.27547759     1.57950
O20         O  0.87464711  0.86648427  0.29288070    -0.80940
O21         O  0.70495778  0.85137030  0.26071500    -0.75180
O22         O  0.61967444  0.70470625  0.36907144    -0.81020
O23         O  0.73310542  0.58501197  0.16356911    -0.82730
O24         O  0.87308466  0.78348180  0.13270464    -0.81050
C25         C  0.67159074  0.82154263  0.27402665     0.87120
O26         O  0.79744457  0.81107260  0.21393427    -0.88190
O27         O  0.78657008  0.79385279  0.32169176    -0.88300
O28         O  0.84162603  0.74006896  0.29559203    -0.75350
Mg29       Mg  0.63387876  0.72534728  0.28486814     1.57970
O30         O  0.66187865  0.76086936  0.41048685    -0.82730
H31         H  0.66972070  0.74186412  0.13368242    -0.06450
O32         O  0.80887341  0.70448776  0.19548425    -0.88000
H33         H  0.85981752  0.66194447  0.22598893    -0.06280
H34         H  0.76117349  0.86240252  0.17545382    -0.06450
C35         C  0.82140900  0.66715187  0.21842505     0.87100
C36         C  0.67243359  0.72629885  0.16998808     0.87680
C37         C  0.77157464  0.82421035  0.17846509     0.87730
H38         H  0.82072199  0.74652005  0.36654386    -0.06430
O39         O  0.73520566  0.69861820  0.35314006    -0.75460
Mg40       Mg  0.85453512  0.75865809  0.21503048     1.58000
H41         H  0.73285619  0.62976270  0.32528288    -0.06450
C42         C  0.76773409  0.58832749  0.13204208     0.92720
O43         O  0.82561340  0.73784917  0.08464873    -0.82690
C44         C  0.85878799  0.76999649  0.09001540     0.92780
O45         O  0.58379161  0.66752748  0.25926413    -0.82670
Mg46       Mg  0.72326205  0.78205036  0.36334220     1.58180
O47         O  0.78479885  0.62959468  0.11753232    -0.81010
O48         O  0.76567430  0.90717706  0.33485405    -0.82700
O49         O  0.81074633  0.21437714  0.79818754    -0.88290
C50         C  0.66652611  0.21947573  0.82077630     0.87740
Mg51       Mg  0.85689675  0.27586481  0.78824962     1.58150
O52         O  0.69608927  0.17755712  0.70654405    -0.88020
O53         O  0.79312760  0.14736539  0.75654017    -0.75350
C54         C  0.72628251  0.40852605  0.62955997     0.92790
O55         O  0.74053816  0.29630942  0.84070273    -0.75160
O56         O  0.76276502  0.40999981  0.65878450    -0.82670
Mg57       Mg  0.75855593  0.21559046  0.85514079     1.57960
C58         C  0.63724463  0.22338364  0.58423471     0.92710
O59         O  0.78346642  0.13285637  0.87393123    -0.80930
H60         H  0.74034585  0.13238647  0.67038114    -0.06270
C61         C  0.66846623  0.32162007  0.71790424     0.87650
O62         O  0.85294217  0.26035897  0.70544240    -0.75440
O63         O  0.70373423  0.19595999  0.80932397    -0.88200
O64         O  0.62248003  0.20476377  0.62479167    -0.81010
C65         C  0.58536000  0.13329203  0.76722008     0.92830
C66         C  0.76953773  0.09016463  0.86019200     0.92680
Mg67       Mg  0.72669803  0.28381910  0.63279663     1.57950
O68         O  0.70588209  0.36800898  0.61785740    -0.80940
O69         O  0.74269769  0.20221673  0.64451578    -0.75180
O70         O  0.62638896  0.11810885  0.78519132    -0.81020
O71         O  0.80673329  0.24780594  0.90552893    -0.82730
O72         O  0.86972460  0.37512867  0.70518690    -0.81050
C73         C  0.72573825  0.16904679  0.67297150     0.87120
O74         O  0.78656745  0.29919707  0.67918213    -0.88190
O75         O  0.68003447  0.28477134  0.69414491    -0.88300
O76         O  0.69976782  0.35322391  0.73191950    -0.75350
Mg77       Mg  0.71052010  0.13327522  0.76751250     1.57970
O78         O  0.58329656  0.16509573  0.73250131    -0.82730
H79         H  0.86178918  0.17496329  0.76325957    -0.06450
O80         O  0.79420290  0.32185166  0.78512192    -0.88000
H81         H  0.74740311  0.36710840  0.81881990    -0.06280
H82         H  0.82961784  0.26073895  0.63463353    -0.06450
C83         C  0.76144088  0.33008173  0.81589017     0.87100
C84         C  0.82352257  0.17852134  0.77318349     0.87680
C85         C  0.82363146  0.27379976  0.67133251     0.87730
H86         H  0.63064639  0.32544395  0.72873288    -0.06430
O87         O  0.63802726  0.23843388  0.78893474    -0.75460
Mg88       Mg  0.78355904  0.36319186  0.72108167     1.58000
H89         H  0.66096962  0.22759367  0.85889515    -0.06450
C90         C  0.84130757  0.27786981  0.91109433     0.92720
O91         O  0.90827806  0.33484311  0.76604590    -0.82690
C92         C  0.90925016  0.36285466  0.72817127     0.92780
O93         O  0.73615559  0.08489581  0.82792563    -0.82670
Mg94       Mg  0.63351695  0.22415164  0.70747211     1.58180
O95         O  0.86479890  0.29540390  0.87410420    -0.81010
O96         O  0.66871255  0.25780893  0.58235700    -0.82700
O97         O  0.78654228  0.69807558  0.81933174    -0.88290
C98         C  0.77224639  0.67090600  0.67712347     0.87740
Mg99       Mg  0.72647494  0.71435079  0.86447343     1.58150
O100        O  0.81947223  0.78569624  0.69896951    -0.88020
O101        O  0.85274789  0.73857146  0.79626351    -0.75350
C102        C  0.59226486  0.86684108  0.72532821     0.92790
O103        O  0.70093141  0.64842445  0.75962635    -0.75160
O104        O  0.58951517  0.83622719  0.76085898    -0.82670
Mg105      Mg  0.78297260  0.63599176  0.77409517     1.57960
C106        C  0.77651705  0.90974736  0.63592123     0.92710
O107        O  0.86620872  0.61961503  0.79366616    -0.80930
H108        H  0.86790320  0.82311488  0.73791687    -0.06270
C109        C  0.67770063  0.77520123  0.67204661     0.87650
O110        O  0.74285762  0.79609127  0.85370239    -0.75440
O111        O  0.79860458  0.68038181  0.71287427    -0.88200
O112        O  0.79482925  0.86874418  0.62196385    -0.81010
C113        C  0.86362318  0.72388985  0.58954951     0.92830
C114        C  0.90726462  0.63219023  0.77451724     0.92680
Mg115      Mg  0.71668254  0.86337569  0.72654684     1.57950
O116        O  0.63342723  0.87932081  0.70634017    -0.80940
O117        O  0.79869840  0.85115140  0.74147694    -0.75180
O118        O  0.87662052  0.70415577  0.63047381    -0.81020
O119        O  0.75744473  0.58711352  0.83326767    -0.82730
O120        O  0.62406135  0.79591775  0.87045096    -0.81050
C121        C  0.83042236  0.82065472  0.72548413     0.87120
O122        O  0.70118428  0.81928480  0.78790550    -0.88190
O123        O  0.71366199  0.80114987  0.68150130    -0.88300
O124        O  0.64757220  0.76046579  0.70473681    -0.75350
Mg125      Mg  0.86244807  0.72357643  0.71416433     1.57970
O126        O  0.83283120  0.75928784  0.58730276    -0.82730
H127        H  0.82713184  0.73582285  0.86618161    -0.06450
O128        O  0.68055280  0.71389760  0.80226587    -0.88000
H129        H  0.63170957  0.67629949  0.76398826    -0.06280
H130        H  0.74036652  0.86595651  0.82751849    -0.06450
C131        C  0.66934052  0.67886185  0.77596484     0.87100
C132        C  0.82279099  0.72355352  0.82896529     0.87680
C133        C  0.72758908  0.82884441  0.82362838     0.87730
H134        H  0.67384633  0.76223674  0.63504060    -0.06430
O135        O  0.75753376  0.70360888  0.64673753    -0.75460
Mg136      Mg  0.63753081  0.77598678  0.78672470     1.58000
H137        H  0.75898277  0.63396746  0.67356384    -0.06450
C138        C  0.72373655  0.58969163  0.86558319     0.92720
O139        O  0.66830700  0.74120854  0.91380944    -0.82690
C140        C  0.63771775  0.77678264  0.91148272     0.92780
O141        O  0.90998219  0.66316738  0.73935364    -0.82670
Mg142      Mg  0.77404868  0.78535625  0.63646530     1.58180
O143        O  0.70583754  0.63083345  0.87976362    -0.81010
O144        O  0.74214224  0.91215750  0.66751377    -0.82700
C145        C  0.48479679  0.40554902  0.21991082     0.03190
C146        C  0.44598444  0.39392772  0.25251578    -0.12960
C147        C  0.45674666  0.38294756  0.30282490     0.00690
C148        C  0.50736595  0.37618151  0.31542092    -0.11490
C149        C  0.54445344  0.39431593  0.28347305     0.03180
C150        C  0.52976982  0.41832265  0.24092383    -0.10910
H151        H  0.40857349  0.39428904  0.23919576     0.08770
H152        H  0.51787832  0.35898948  0.34994150     0.06300
H153        H  0.55863582  0.43400458  0.21817251     0.06150
C154        C  0.36499071  0.27603425  0.54192745     0.03190
C155        C  0.37248715  0.31448420  0.50728474    -0.12960
C156        C  0.38093396  0.30313366  0.45651213     0.00690
C157        C  0.38786523  0.25274153  0.44406968    -0.11490
C158        C  0.37563590  0.21570514  0.47860124     0.03180
C159        C  0.35737365  0.22929547  0.52352280    -0.10910
H160        H  0.37142738  0.35223758  0.51933320     0.08770
H161        H  0.40189052  0.24257552  0.40833003     0.06300
H162        H  0.34366692  0.19998336  0.54698719     0.06150
C163        C  0.41639304  0.37974318  0.34121417     0.03190
C164        C  0.41711107  0.34333678  0.37893671    -0.12960
C165        C  0.38141902  0.34288863  0.41704996     0.00690
C166        C  0.34441110  0.37979310  0.41652787    -0.11490
C167        C  0.34247244  0.41678564  0.37958639     0.03180
C168        C  0.37870932  0.41609922  0.34219561    -0.10910
H169        H  0.44577637  0.31552003  0.37889087     0.08770
H170        H  0.31703673  0.38001140  0.44551112     0.06300
H171        H  0.37829505  0.44472811  0.31427647     0.06150
C172        C  0.22284944  0.48729349  0.40719899     0.03190
C173        C  0.25441037  0.44803613  0.39435911    -0.12960
C174        C  0.30468284  0.45780631  0.38311925     0.00690
C175        C  0.31764587  0.50815742  0.37650341    -0.11490
C176        C  0.28646878  0.54542837  0.39575781     0.03180
C177        C  0.24501403  0.53094591  0.42129606    -0.10910
H178        H  0.24027380  0.41113156  0.39386187     0.08770
H179        H  0.35177178  0.51824616  0.35864569     0.06300
H180        H  0.22296499  0.55970045  0.43805534     0.06150
O181        O  0.91774993  0.46528205  0.49531615    -0.88290
C182        C  0.00284330  0.48186325  0.61111923     0.87740
Mg183      Mg  0.93638511  0.42525581  0.43403143     1.58150
O184        O  0.99496389  0.58253061  0.53424300    -0.88020
O185        O  0.89358496  0.54197102  0.50508584    -0.75350
C186        C  0.16801503  0.48772582  0.40473437     0.92790
O187        O  0.99715443  0.39183792  0.54404556    -0.75160
O188        O  0.14319541  0.45119257  0.38987053    -0.82670
Mg189      Mg  0.92686078  0.43179847  0.56621274     1.57960
C190        C  0.09564125  0.66626826  0.48685022     0.92710
O191        O  0.85535301  0.47196230  0.58218373    -0.80930
H192        H  0.95310155  0.63418235  0.50267412    -0.06270
C193        C  0.11152227  0.49790905  0.51753958     0.87650
O194        O  0.95817367  0.49526310  0.39357246    -0.75440
O195        O  0.96710728  0.49300754  0.58469277    -0.88200
O196        O  0.08166689  0.64513531  0.52659435    -0.81010
C197        C  0.01242421  0.59460132  0.66702354     0.92830
C198        C  0.83420790  0.51152464  0.59597522     0.92680
Mg199      Mg  0.07515483  0.56679739  0.43523306     1.57950
O200        O  0.14651534  0.52697086  0.41878350    -0.80940
O201        O  0.00499937  0.60671036  0.45733906    -0.75180
O202        O  0.97337802  0.58033875  0.64556795    -0.81020
O203        O  0.89102782  0.35749803  0.55052732    -0.82730
O204        O  0.02818054  0.41877720  0.35525182    -0.81050
C205        C  0.98363277  0.60935805  0.49881213     0.87120
O206        O  0.03499134  0.50550681  0.41716762    -0.88190
O207        O  0.08493475  0.53358023  0.50630548    -0.88300
O208        O  0.10869994  0.45672790  0.49612656    -0.75350
Mg209      Mg  0.93358551  0.56380382  0.57479676     1.57970
O210        O  0.04927941  0.60956963  0.64213802    -0.82730
H211        H  0.86597268  0.49690854  0.45366694    -0.06450
O212        O  0.00737564  0.41572216  0.46699997    -0.88000
H213        H  0.04948593  0.36441444  0.49903660    -0.06280
H214        H  0.00307365  0.54724306  0.36554689    -0.06450
C215        C  0.01872056  0.38911340  0.50263852     0.87100
C216        C  0.89087811  0.50066234  0.48399572     0.87680
C217        C  0.99946866  0.51672453  0.39054448     0.87730
H218        H  0.13633757  0.50128079  0.54806637    -0.06430
O219        O  0.04400518  0.50363699  0.60804871    -0.75460
Mg220      Mg  0.06864481  0.43483340  0.42626763     1.58000
H221        H  0.99958296  0.45110964  0.63599429    -0.06450
C222        C  0.90602843  0.33273434  0.51384834     0.92720
O223        O  0.95221683  0.38959157  0.35962115    -0.82690
C224        C  0.98868116  0.40474565  0.33431531     0.92780
O225        O  0.85925327  0.54776274  0.61112020    -0.82670
Mg226      Mg  0.06576925  0.57380151  0.56753414     1.58180
O227        O  0.92014796  0.35417641  0.47440453    -0.81010
O228        O  0.11078213  0.64119827  0.45043586    -0.82700
O229        O  0.41551030  0.03367195  0.50147831    -0.88290
C230        C  0.50192154  0.01512744  0.38757160     0.87740
Mg231      Mg  0.43294958  0.07718534  0.56055426     1.58150
O232        O  0.49590091  0.91677665  0.46646447    -0.88020
O233        O  0.39323725  0.95640572  0.49449160    -0.75350
C234        C  0.66731509  0.01548613  0.59421029     0.92790
O235        O  0.49168715  0.10862012  0.45023133    -0.75160
O236        O  0.64186731  0.05318231  0.60629146    -0.82670
Mg237      Mg  0.42379547  0.06469423  0.42922413     1.57960
C238        C  0.59741300  0.83455529  0.51433745     0.92710
O239        O  0.35515585  0.02249403  0.41422526    -0.80930
H240        H  0.45466356  0.86619946  0.49969965    -0.06270
C241        C  0.61126651  0.00245488  0.48151085     0.87650
O242        O  0.45800707  0.00971779  0.60442371    -0.75440
O243        O  0.46663069  0.00402175  0.41435398    -0.88200
O244        O  0.58375564  0.85594523  0.47472133    -0.81010
C245        C  0.51499043  0.90294149  0.33480558     0.92830
C246        C  0.33368168  0.98320682  0.40178997     0.92680
Mg247      Mg  0.57550751  0.93556339  0.56518975     1.57950
O248        O  0.64632721  0.97576095  0.58145316    -0.80940
O249        O  0.50589635  0.89537798  0.54417812    -0.75180
O250        O  0.47486969  0.91645456  0.35515896    -0.81020
O251        O  0.38212376  0.13643994  0.44043825    -0.82730
O252        O  0.52399136  0.08829954  0.63951957    -0.81050
C253        C  0.48485754  0.89117022  0.50275761     0.87120
O254        O  0.53480729  0.99812301  0.58135356    -0.88190
O255        O  0.58488131  0.96731681  0.49362493    -0.88300
O256        O  0.60725766  0.04459974  0.50089329    -0.75350
Mg257      Mg  0.43411890  0.93307664  0.42535058     1.57970
O258        O  0.55158500  0.88830554  0.36041311    -0.82730
H259        H  0.36450567  0.00297969  0.54451524    -0.06450
O260        O  0.50390358  0.08724494  0.52760488    -0.88000
H261        H  0.54280722  0.13951197  0.49389762    -0.06280
H262        H  0.50351270  0.95913018  0.63516194    -0.06450
C263        C  0.51353821  0.11332223  0.49123824     0.87100
C264        C  0.38955402  0.99840788  0.51421800     0.87680
C265        C  0.49949415  0.98826192  0.60849566     0.87730
H266        H  0.63680071  0.99771696  0.45176001    -0.06430
O267        O  0.54392892  0.99464630  0.39140012    -0.75460
Mg268      Mg  0.56621536  0.06911601  0.56935818     1.58000
H269        H  0.49740783  0.04472115  0.36168818    -0.06450
C270        C  0.39026931  0.16332529  0.47736270     0.92720
O271        O  0.44751608  0.11733544  0.63268347    -0.82690
C272        C  0.48369833  0.10307360  0.65916922     0.92780
O273        O  0.35871846  0.94595483  0.38838372    -0.82670
Mg274      Mg  0.56679469  0.92587595  0.43336794     1.58180
O275        O  0.40833212  0.14555829  0.51734527    -0.81010
O276        O  0.61145208  0.85949936  0.55122126    -0.82700
C277        C  0.66095392  0.58479400  0.62153508     0.03190
C278        C  0.62398370  0.58490323  0.65831205    -0.12960
C279        C  0.58651491  0.62151325  0.65946042     0.00690
C280        C  0.58688793  0.65879357  0.62285606    -0.11490
C281        C  0.62313926  0.66001907  0.58536452     0.03180
C282        C  0.65997613  0.62286381  0.58546197    -0.10910
H283        H  0.62356480  0.55560631  0.68551688     0.08770
H284        H  0.55794279  0.68634648  0.62271560     0.06300
H285        H  0.68729780  0.62274017  0.55645926     0.06150
C286        C  0.51600190  0.59613192  0.77914498     0.03190
C287        C  0.55530706  0.60713870  0.74714828    -0.12960
C288        C  0.54525906  0.61797999  0.69681635     0.00690
C289        C  0.49469045  0.62527177  0.68370248    -0.11490
C290        C  0.45709016  0.60754928  0.71552364     0.03180
C291        C  0.47141837  0.58294000  0.75775140    -0.10910
H292        H  0.59250116  0.60655774  0.76102486     0.08770
H293        H  0.48467066  0.64274408  0.64918365     0.06300
H294        H  0.44239814  0.56727347  0.78034004     0.06150
C295        C  0.59526158  0.77976725  0.51445326     0.03190
C296        C  0.58131870  0.75803707  0.47039106    -0.12960
C297        C  0.60609704  0.71604396  0.45617488     0.00690
C298        C  0.62521138  0.68468176  0.49371726    -0.11490
C299        C  0.61900706  0.69769909  0.54411626     0.03180
C300        C  0.60768980  0.74790070  0.55381530    -0.10910
H301        H  0.56475504  0.78031335  0.44138519     0.08770
H302        H  0.64280036  0.65039892  0.48376876     0.06300
H303        H  0.60752793  0.76176757  0.59079780     0.06150
C304        C  0.71557829  0.45528542  0.60376897     0.03190
C305        C  0.75672148  0.46985790  0.57778791    -0.12960
C306        C  0.77948044  0.51289815  0.59271109     0.00690
C307        C  0.74850163  0.55240017  0.60607185    -0.11490
C308        C  0.69818410  0.54314242  0.61740434     0.03180
C309        C  0.68492169  0.49273178  0.62382360    -0.10910
H310        H  0.77842757  0.44123142  0.56038440     0.08770
H311        H  0.76320161  0.58906599  0.60706412     0.06300
H312        H  0.65094024  0.48274199  0.64200280     0.06150
O313        O  0.58278888  0.53538550  0.99537200    -0.88290
C314        C  0.49480228  0.51748824  0.10879499     0.87740
Mg315      Mg  0.56596006  0.57674266  0.93392305     1.58150
O316        O  0.50085449  0.41844984  0.03229883    -0.88020
O317        O  0.60395018  0.45747220  0.00394390    -0.75350
C318        C  0.33622306  0.52179798  0.88794890     0.92790
O319        O  0.50369776  0.60888661  0.04337248    -0.75160
O320        O  0.36346921  0.55887443  0.88108310    -0.82670
Mg321      Mg  0.57265057  0.56715152  0.06618477     1.57960
C322        C  0.39643795  0.33790956  0.98257447     0.92710
O323        O  0.64277708  0.52505630  0.08298744    -0.80930
H324        H  0.54082540  0.36498962  0.00193419    -0.06270
C325        C  0.38402644  0.50580827  0.01144046     0.87650
O326        O  0.54356028  0.50731210  0.89355805    -0.75440
O327        O  0.53101533  0.50606154  0.08331311    -0.88200
O328        O  0.41094151  0.35769793  0.02260719    -0.81010
C329        C  0.48339130  0.40435618  0.16494803     0.92830
C330        C  0.66369259  0.48485015  0.09600420     0.92680
Mg331      Mg  0.42211067  0.43802708  0.93104273     1.57950
O332        O  0.35331258  0.48124083  0.90569251    -0.80940
O333        O  0.48986495  0.39469067  0.95615856    -0.75180
O334        O  0.52275803  0.41748974  0.14314118    -0.81020
O335        O  0.60975442  0.64167926  0.05114591    -0.82730
O336        O  0.47720899  0.58607678  0.85542689    -0.81050
C337        C  0.51126930  0.39119520  0.99754099     0.87120
O338        O  0.46564849  0.49814707  0.91455843    -0.88190
O339        O  0.41060136  0.46990369  0.00183886    -0.88300
O340        O  0.38929421  0.54741577  0.99052547    -0.75350
Mg341      Mg  0.56303941  0.43472233  0.07298383     1.57970
O342        O  0.44556062  0.39167964  0.14030972    -0.82730
H343        H  0.63434567  0.50359654  0.95429819    -0.06450
O344        O  0.49455067  0.58535321  0.96669869    -0.88000
H345        H  0.45327548  0.63770591  0.99676820    -0.06280
H346        H  0.49895324  0.45587124  0.86493297    -0.06450
C347        C  0.48309550  0.61218066  0.00154097     0.87100
C348        C  0.60869884  0.49953759  0.98398381     0.87680
C349        C  0.50206582  0.48635903  0.88954002     0.87730
H350        H  0.35690333  0.50220448  0.03994356    -0.06430
O351        O  0.45301565  0.49718308  0.10441232    -0.75460
Mg352      Mg  0.43430792  0.57004673  0.92344777     1.58000
H353        H  0.49825391  0.54749850  0.13388426    -0.06450
C354        C  0.59603368  0.66769198  0.01425513     0.92720
O355        O  0.55317236  0.61384097  0.85850565    -0.82690
C356        C  0.51638054  0.59934933  0.83374906     0.92780
O357        O  0.63829550  0.44789675  0.10949889    -0.82670
Mg358      Mg  0.42944018  0.42832599  0.06420792     1.58180
O359        O  0.58237341  0.64743233  0.97438803    -0.81010
O360        O  0.38286675  0.36442028  0.94591684    -0.82700
O361        O  0.58504540  0.46538730  0.50354592    -0.88290
C362        C  0.49739384  0.48487988  0.39052140     0.87740
Mg363      Mg  0.56868139  0.42315857  0.56481959     1.58150
O364        O  0.50447765  0.58328879  0.46748405    -0.88020
O365        O  0.60716531  0.54271094  0.49426054    -0.75350
C366        C  0.33643189  0.48262717  0.60212363     0.92790
O367        O  0.50620020  0.39307465  0.45531722    -0.75160
O368        O  0.36283408  0.44571287  0.61474824    -0.82670
Mg369      Mg  0.57520672  0.43415334  0.43242649     1.57960
C370        C  0.40338573  0.66511740  0.51728036     0.92710
O371        O  0.64565640  0.47522234  0.41577336    -0.80930
H372        H  0.54582688  0.63423793  0.49883094    -0.06270
C373        C  0.38903548  0.49828506  0.48752979     0.87650
O374        O  0.54626871  0.49169623  0.60675159    -0.75440
O375        O  0.53351643  0.49573084  0.41604467    -0.88200
O376        O  0.41651389  0.64429365  0.47742973    -0.81010
C377        C  0.48352982  0.59723037  0.33495810     0.92830
C378        C  0.66629381  0.51515103  0.40235742     0.92680
Mg379      Mg  0.42671135  0.56428970  0.56894691     1.57950
O380        O  0.35633105  0.52281447  0.58792210    -0.80940
O381        O  0.49551122  0.60501582  0.54492017    -0.75180
O382        O  0.52371440  0.58366666  0.35552274    -0.81020
O383        O  0.61237800  0.35916852  0.44591671    -0.82730
O384        O  0.47914176  0.41243737  0.64318126    -0.81050
C385        C  0.51592946  0.60906927  0.50302081     0.87120
O386        O  0.46851671  0.50250286  0.58557696    -0.88190
O387        O  0.41622362  0.53300858  0.49801671    -0.88300
O388        O  0.39323719  0.45616504  0.50760313    -0.75350
Mg389      Mg  0.56564541  0.56635841  0.42559887     1.57970
O390        O  0.44678909  0.61112381  0.36069152    -0.82730
H391        H  0.63700202  0.49615838  0.54413812    -0.06450
O392        O  0.49707314  0.41511827  0.53256691    -0.88000
H393        H  0.45606386  0.36356643  0.50152856    -0.06280
H394        H  0.50125056  0.54239097  0.63699086    -0.06450
C395        C  0.48571141  0.38908322  0.49718524     0.87100
C396        C  0.61129263  0.50069516  0.51465371     0.87680
C397        C  0.50465372  0.51286085  0.61132359     0.87730
H398        H  0.36236786  0.50341461  0.45892839    -0.06430
O399        O  0.45553085  0.50546067  0.39521873    -0.75460
Mg400      Mg  0.43633818  0.43180682  0.57509473     1.58000
H401        H  0.50103003  0.45528313  0.36509249    -0.06450
C402        C  0.59816226  0.33322156  0.48244801     0.92720
O403        O  0.55582239  0.38494761  0.64006723    -0.82690
C404        C  0.51824931  0.39797664  0.66493738     0.92780
O405        O  0.64054526  0.55208285  0.38837066    -0.82670
Mg406      Mg  0.43302345  0.57426524  0.43612093     1.58180
O407        O  0.58487593  0.35345882  0.52256248    -0.81010
O408        O  0.38972019  0.63967304  0.55446544    -0.82700
O409        O  0.94755458  0.06168753  0.95111162    -0.88290
C410        C  0.08818386  0.07055151  0.96806301     0.87740
Mg411      Mg  0.89816677  0.05158776  0.00732129     1.58150
O412        O  0.04453294  0.96280815  0.92617056    -0.88020
O413        O  0.96203241  0.02397643  0.88136005    -0.75350
C414        C  0.01467875  0.90332827  0.16037720     0.92790
O415        O  0.00962348  0.10488240  0.03770240    -0.75160
O416        O  0.97891415  0.93381905  0.15863957    -0.82670
Mg417      Mg  0.99794078  0.11846780  0.95642005     1.57960
C418        C  0.08879008  0.83100853  0.97671347     0.92710
O419        O  0.97760485  0.13385751  0.87279612    -0.80930
H420        H  0.99626211  0.93067984  0.88244366    -0.06270
C421        C  0.07581166  0.97650772  0.06666598     0.87650
O422        O  0.89941153  0.97001579  0.99320603    -0.75440
O423        O  0.05103894  0.06686483  0.94210560    -0.88200
O424        O  0.10538104  0.86613038  0.95031540    -0.81010
C425        C  0.16500567  0.00466116  0.89043943     0.92830
C426        C  0.99537019  0.11988680  0.83158994     0.92680
Mg427      Mg  0.01113640  0.89425604  0.03501481     1.57950
O428        O  0.03293239  0.88515080  0.12089790    -0.80940
O429        O  0.99577619  0.90345536  0.95193304    -0.75180
O430        O  0.13398732  0.03796054  0.87835709    -0.81020
O431        O  0.94689943  0.17320421  0.98403400    -0.82730
O432        O  0.86998838  0.97520749  0.11178009    -0.81050
C433        C  0.01228738  0.93191295  0.91841163     0.87120
O434        O  0.95577611  0.94370671  0.04540432    -0.88190
O435        O  0.06459376  0.94890518  0.03240486    -0.88300
O436        O  0.04398730  0.99516282  0.09579701    -0.75350
Mg437      Mg  0.04601215  0.02603673  0.87881622     1.57970
O438        O  0.14933936  0.96140992  0.89769520    -0.82730
H439        H  0.89390445  0.04160069  0.90631995    -0.06450
O440        O  0.95502040  0.04829038  0.05779610    -0.88000
H441        H  0.99762169  0.08069349  0.10688176    -0.06280
H442        H  0.91347954  0.89844487  0.00739825    -0.06450
C443        C  0.98651518  0.07898639  0.06908046     0.87100
C444        C  0.93283946  0.04308156  0.91248775     0.87680
C445        C  0.92154658  0.93584298  0.01648399     0.87730
H446        H  0.11382184  0.98624555  0.07084861    -0.06430
O447        O  0.11409404  0.03366549  0.98128587    -0.75460
Mg448      Mg  0.95906865  0.98948349  0.10499442     1.58000
H449        H  0.09747017  0.10575347  0.98110225    -0.06450
C450        C  0.91306059  0.17263886  0.01628362     0.92720
O451        O  0.84352814  0.03196463  0.05909839    -0.82690
C452        C  0.83455522  0.99788879  0.08955456     0.92780
O453        O  0.03235998  0.09059457  0.82947670    -0.82670
Mg454      Mg  0.10772166  0.95127387  0.96682609     1.58180
O455        O  0.89217133  0.13308720  0.02980461    -0.81010
O456        O  0.06058613  0.83846002  0.01306341    -0.82700
C457        C  0.78022409  0.01282090  0.40382696     0.03190
C458        C  0.75871094  0.96780280  0.41480048    -0.12960
C459        C  0.71806547  0.95431509  0.38802198     0.00690
C460        C  0.68656446  0.99238233  0.36962073    -0.11490
C461        C  0.69860203  0.04275773  0.37850309     0.03180
C462        C  0.74834047  0.05228522  0.39204096    -0.10910
H463        H  0.78066427  0.93841245  0.43113677     0.08770
H464        H  0.65309773  0.98279986  0.35053353     0.06300
H465        H  0.76193059  0.08923275  0.39450003     0.06150
C466        C  0.62395123  0.16018460  0.40922615     0.03190
C467        C  0.58732398  0.15916556  0.37216139    -0.12960
C468        C  0.58634138  0.12183004  0.33634185     0.00690
C469        C  0.62360543  0.08491107  0.33786216    -0.11490
C470        C  0.66098238  0.08444672  0.37425481     0.03180
C471        C  0.66053697  0.12268597  0.40945129    -0.10910
H472        H  0.55848245  0.18681616  0.37212755     0.08770
H473        H  0.62271045  0.05571349  0.31116680     0.06300
H474        H  0.68816641  0.12245321  0.43811339     0.06150
C475        C  0.51331252  0.09273654  0.21971313     0.03190
C476        C  0.55329676  0.10622383  0.24971821    -0.12960
C477        C  0.54441558  0.11818996  0.29978037     0.00690
C478        C  0.49410802  0.12596406  0.31339380    -0.11490
C479        C  0.45604243  0.10674718  0.28341433     0.03180
C480        C  0.46974060  0.07954131  0.24313880    -0.10910
H481        H  0.59001767  0.10732631  0.23446465     0.08770
H482        H  0.48461356  0.14476309  0.34700006     0.06300
H483        H  0.44046900  0.06257161  0.22223282     0.06150
C484        C  0.59581140  0.27848214  0.48122879     0.03190
C485        C  0.58385404  0.25543083  0.52540324    -0.12960
C486        C  0.61077529  0.21430978  0.53832380     0.00690
C487        C  0.62902179  0.18389645  0.50034771    -0.11490
C488        C  0.62026443  0.19746352  0.45026695     0.03180
C489        C  0.60704511  0.24765243  0.44110347    -0.10910
H490        H  0.56769427  0.27653809  0.55510235     0.08770
H491        H  0.64787993  0.14999340  0.50988461     0.06300
H492        H  0.60451294  0.26219877  0.40415216     0.06150
C493        C  0.27622551  0.04010837  0.63965536     0.03190
C494        C  0.22911613  0.02166150  0.64614994    -0.12960
C495        C  0.21563176  0.97776128  0.62621641     0.00690
C496        C  0.25279296  0.94362334  0.61345013    -0.11490
C497        C  0.30327599  0.95552098  0.62141000     0.03180
C498        C  0.31474003  0.00585629  0.63108396    -0.10910
H499        H  0.19958964  0.04460885  0.66022136     0.08770
H500        H  0.24256688  0.90856685  0.59832484     0.06300
H501        H  0.35262796  0.01781594  0.63242306     0.06150
C502        C  0.41712151  0.87867899  0.65963284     0.03190
C503        C  0.38019153  0.91562345  0.65753108    -0.12960
C504        C  0.34296400  0.91598868  0.62108163     0.00690
C505        C  0.34303553  0.87763113  0.58619658    -0.11490
C506        C  0.37939756  0.83989581  0.58703530     0.03180
C507        C  0.41607431  0.84105010  0.62413024    -0.10910
H508        H  0.38070603  0.94470946  0.68440554     0.08770
H509        H  0.31500097  0.87746148  0.55794039     0.06300
H510        H  0.44469155  0.81316649  0.62458078     0.06150
C511        C  0.54638104  0.89383863  0.71447677     0.03190
C512        C  0.50877717  0.87531215  0.68362906    -0.12960
C513        C  0.45838176  0.88244281  0.69685590     0.00690
C514        C  0.44872191  0.89416257  0.74693006    -0.11490
C515        C  0.48819787  0.90716863  0.77786827     0.03180
C516        C  0.53232733  0.92010299  0.75530043    -0.10910
H517        H  0.51867730  0.85711229  0.64979510     0.08770
H518        H  0.41172416  0.89363906  0.76143282     0.06300
H519        H  0.56145562  0.93650362  0.77684925     0.06150
C520        C  0.39261646  0.78398694  0.45915722     0.03190
C521        C  0.41813241  0.74214984  0.47281209    -0.12960
C522        C  0.40558879  0.71994161  0.51736599     0.00690
C523        C  0.39436806  0.75156394  0.55687921    -0.11490
C524        C  0.38252000  0.80190207  0.54680014     0.03180
C525        C  0.37460386  0.81507006  0.49656627    -0.10910
H526        H  0.43401728  0.72037800  0.44346426     0.08770
H527        H  0.39574899  0.73751716  0.59408579     0.06300
H528        H  0.35666972  0.84932746  0.48648366     0.06150
O529        O  0.49364365  0.08371724  0.03308312    -0.88290
C530        C  0.60981655  0.99844751  0.01706563     0.87740
Mg531      Mg  0.43249082  0.06414323  0.07350882     1.58150
O532        O  0.53357407  0.00714648  0.91605814    -0.88020
O533        O  0.50392963  0.10862744  0.95652731    -0.75350
C534        C  0.40437368  0.83316522  0.01101741     0.92790
O535        O  0.54241914  0.00405986  0.10679877    -0.75160
O536        O  0.38975575  0.85800005  0.04781314    -0.82670
Mg537      Mg  0.56438839  0.07416061  0.06655291     1.57960
C538        C  0.48837370  0.90546261  0.83260863     0.92710
O539        O  0.58133072  0.14507479  0.02707846    -0.80930
H540        H  0.50148051  0.04942454  0.86489346    -0.06270
C541        C  0.51693151  0.88954047  0.00019597     0.87650
O542        O  0.39228814  0.04272086  0.00354025    -0.75440
O543        O  0.58348599  0.03425907  0.00563459    -0.88200
O544        O  0.52749070  0.92002153  0.85381047    -0.81010
C545        C  0.66608159  0.98873542  0.90466117     0.92830
C546        C  0.59584085  0.16699589  0.98814584     0.92680
Mg547      Mg  0.43501953  0.92601983  0.93168489     1.57950
O548        O  0.41858907  0.85451589  0.97154348    -0.80940
O549        O  0.45701283  0.99642300  0.89176676    -0.75180
O550        O  0.64503333  0.02815020  0.91882059    -0.81020
O551        O  0.54808369  0.11049714  0.13976599    -0.82730
O552        O  0.35467313  0.97170677  0.08068520    -0.81050
C553        C  0.49808194  0.01842136  0.88938726     0.87120
O554        O  0.41573379  0.96585186  0.99296816    -0.88190
O555        O  0.50564197  0.91685736  0.96515181    -0.88300
O556        O  0.49571120  0.89195450  0.04172949    -0.75350
Mg557      Mg  0.57403656  0.06831671  0.93480848     1.57970
O558        O  0.64108269  0.95259381  0.88931771    -0.82730
H559        H  0.45179002  0.13579246  0.00193484    -0.06450
O560        O  0.46605598  0.99337747  0.08214897    -0.88000
H561        H  0.49765435  0.95144527  0.13375734    -0.06280
H562        H  0.36444574  0.99859104  0.95129923    -0.06450
C563        C  0.50131730  0.98218752  0.10908817     0.87100
C564        C  0.48239880  0.11094580  0.99792966     0.87680
C565        C  0.38926707  0.00167242  0.98191203     0.87730
H566        H  0.54734101  0.86455888  0.99597177    -0.06430
O567        O  0.60683988  0.95736891  0.99550643    -0.75460
Mg568      Mg  0.42573565  0.93210086  0.06376509     1.58000
H569        H  0.63437521  0.00154603  0.04802849    -0.06450
C570        C  0.51197207  0.09490601  0.16516324     0.92720
O571        O  0.35881163  0.04727029  0.11014913    -0.82690
C572        C  0.33370979  0.01095983  0.09534966     0.92780
O573        O  0.61021930  0.14262680  0.95094237    -0.82670
Mg574      Mg  0.56700356  0.93619843  0.92516438     1.58180
O575        O  0.47258429  0.08024043  0.14453829    -0.81010
O576        O  0.45174881  0.89028789  0.85762888    -0.82700
C577        C  0.60912269  0.28437666  0.04758480     0.03190
C578        C  0.58369244  0.24298151  0.03411999    -0.12960
C579        C  0.59513729  0.22168776  0.98919190     0.00690
C580        C  0.60681089  0.25358315  0.94979808    -0.11490
C581        C  0.61903080  0.30339867  0.95926103     0.03180
C582        C  0.62669355  0.31606173  0.00960628    -0.10910
H583        H  0.56823669  0.22067454  0.06355686     0.08770
H584        H  0.60523298  0.24004098  0.91281510     0.06300
H585        H  0.64475293  0.34993714  0.01918151     0.06150
C586        C  0.58692899  0.37715815  0.84161475     0.03190
C587        C  0.58712116  0.34112085  0.87952249    -0.12960
C588        C  0.62298839  0.34059545  0.91741495     0.00690
C589        C  0.65979309  0.37725295  0.91630102    -0.11490
C590        C  0.66102712  0.41399892  0.87884045     0.03180
C591        C  0.62433874  0.41322625  0.84181867    -0.10910
H592        H  0.55835748  0.31381247  0.88021836     0.08770
H593        H  0.68699492  0.37796020  0.94536672     0.06300
H594        H  0.62414600  0.44161306  0.81366016     0.06150
C595        C  0.51643322  0.39743649  0.71985566     0.03190
C596        C  0.55582616  0.38999287  0.75313312    -0.12960
C597        C  0.54586540  0.37957108  0.80382520     0.00690
C598        C  0.49561265  0.37163857  0.81745917    -0.11490
C599        C  0.45762308  0.38485842  0.78414601     0.03180
C600        C  0.47032084  0.40617510  0.73987942    -0.10910
H601        H  0.59309306  0.39401339  0.74015849     0.08770
H602        H  0.48615098  0.35695369  0.85332917     0.06300
H603        H  0.44059764  0.42037361  0.71704873     0.06150
C604        C  0.71463926  0.54338042  0.89239296     0.03190
C605        C  0.68410536  0.50553376  0.87417610    -0.12960
C606        C  0.69807665  0.45532091  0.88162910     0.00690
C607        C  0.74866832  0.44600290  0.89244060    -0.11490
C608        C  0.77943766  0.48564856  0.90497629     0.03180
C609        C  0.75653549  0.52968072  0.91783137    -0.10910
H610        H  0.64965908  0.51514225  0.85642810     0.08770
H611        H  0.76365895  0.40914467  0.89119342     0.06300
H612        H  0.77799098  0.55891396  0.93395743     0.06150
C613        C  0.39087567  0.71550847  0.95388128     0.03190
C614        C  0.41766329  0.75610945  0.96712338    -0.12960
C615        C  0.40568101  0.77845298  0.01135081     0.00690
C616        C  0.39328364  0.74739610  0.05125394    -0.11490
C617        C  0.37982760  0.69775337  0.04242749     0.03180
C618        C  0.37158321  0.68509341  0.99213201    -0.10910
H619        H  0.43408681  0.77766593  0.93764856     0.08770
H620        H  0.39514846  0.76151993  0.08800680     0.06300
H621        H  0.35239733  0.65181069  0.98271035     0.06150
C622        C  0.48251152  0.59550548  0.28007189     0.03190
C623        C  0.52685429  0.58371263  0.25737113    -0.12960
C624        C  0.53942455  0.61016157  0.21589089     0.00690
C625        C  0.50125002  0.62848294  0.18526170    -0.11490
C626        C  0.45125848  0.62004416  0.19864891     0.03180
C627        C  0.44225663  0.60672535  0.24883932    -0.10910
H628        H  0.55679796  0.56771754  0.27877235     0.08770
H629        H  0.51060759  0.64716146  0.15125411     0.06300
H630        H  0.40532116  0.60395999  0.26308479     0.06150
C631        C  0.37521128  0.66073987  0.08459136     0.03190
C632        C  0.41035246  0.66033963  0.12327422    -0.12960
C633        C  0.41015176  0.62399530  0.16105441     0.00690
C634        C  0.37316773  0.58768253  0.15995127    -0.11490
C635        C  0.33739738  0.58667928  0.12223862     0.03180
C636        C  0.33882578  0.62361657  0.08495501    -0.10910
H637        H  0.43900737  0.68774481  0.12311748     0.08770
H638        H  0.37317366  0.55902104  0.18783296     0.06300
H639        H  0.31212769  0.62262772  0.05544852     0.06150
C640        C  0.28458332  0.45681732  0.10855934     0.03190
C641        C  0.31530083  0.49480988  0.12625283    -0.12960
C642        C  0.30096610  0.54500596  0.11893102     0.00690
C643        C  0.25038261  0.55412731  0.10843040    -0.11490
C644        C  0.21972741  0.51437593  0.09646183     0.03180
C645        C  0.24252912  0.47039429  0.08339650    -0.10910
H646        H  0.34989928  0.48537546  0.14378539     0.08770
H647        H  0.23522763  0.59090790  0.10953995     0.06300
H648        H  0.22092316  0.44110724  0.06755803     0.06150
O649        O  0.91622122  0.53310446  0.00618602    -0.88290
C650        C  0.00134445  0.51368306  0.88983962     0.87740
Mg651      Mg  0.93366303  0.57388000  0.06747332     1.58150
O652        O  0.99500005  0.41491401  0.96920884    -0.88020
O653        O  0.89264499  0.45655314  0.99647165    -0.75350
C654        C  0.16507995  0.51393622  0.09879847     0.92790
O655        O  0.99535196  0.60572110  0.95687752    -0.75160
O656        O  0.13979160  0.55070634  0.11294160    -0.82670
Mg657      Mg  0.92579924  0.56554066  0.93484248     1.57960
C658        C  0.09887915  0.33518967  0.01905098     0.92710
O659        O  0.85504301  0.52539104  0.91774886    -0.80930
H660        H  0.95382802  0.36367488  0.00178709    -0.06270
C661        C  0.11019404  0.50160003  0.98576083     0.87650
O662        O  0.95602059  0.50484440  0.10891191    -0.75440
O663        O  0.96643066  0.50349275  0.91735906    -0.88200
O664        O  0.08454087  0.35623053  0.97946407    -0.81010
C665        C  0.01496925  0.39890356  0.83753413     0.92830
C666        C  0.83429532  0.48597243  0.90372863     0.92680
Mg667      Mg  0.07411799  0.43415231  0.06881228     1.57950
O668        O  0.14419095  0.47458726  0.08516922    -0.80940
O669        O  0.00489819  0.39295539  0.04678301    -0.75180
O670        O  0.97521473  0.41381048  0.85785070    -0.81020
O671        O  0.88946032  0.64060382  0.94981690    -0.82730
O672        O  0.02561020  0.58287692  0.14541201    -0.81050
C673        C  0.98391498  0.38893638  0.00524483     0.87120
O674        O  0.03297391  0.49545766  0.08525713    -0.88190
O675        O  0.08329799  0.46665440  0.99719209    -0.88300
O676        O  0.10699500  0.54319216  0.00632337    -0.75350
Mg677      Mg  0.93381219  0.43299903  0.92769691     1.57970
O678        O  0.05195708  0.38577905  0.86346773    -0.82730
H679        H  0.86418106  0.50207926  0.04739737    -0.06450
O680        O  0.00469161  0.58370843  0.03451329    -0.88000
H681        H  0.04616854  0.63481819  0.00218700    -0.06280
H682        H  0.00286431  0.45497819  0.13833718    -0.06450
C683        C  0.01600190  0.60970612  0.99856221     0.87100
C684        C  0.88947538  0.49798086  0.01738230     0.87680
C685        C  0.99803816  0.48443417  0.11244552     0.87730
H686        H  0.13581250  0.49714737  0.95604052    -0.06430
O687        O  0.04314797  0.49282112  0.89354749    -0.75460
Mg688      Mg  0.06594992  0.56588681  0.07541044     1.58000
H689        H  0.99666822  0.54257710  0.86327583    -0.06450
C690        C  0.90313361  0.66537474  0.98690276     0.92720
O691        O  0.94867958  0.61032471  0.14197731    -0.82690
C692        C  0.98621428  0.59662323  0.16684719     0.92780
O693        O  0.85979326  0.44908306  0.88994299    -0.82670
Mg694      Mg  0.06622219  0.42476433  0.93670086     1.58180
O695        O  0.91675662  0.64400665  0.02656250    -0.81010
O696        O  0.11207269  0.36025323  0.05592118    -0.82700
C697        C  0.91650261  0.12115162  0.66003945     0.03190
C698        C  0.91572008  0.15752242  0.62245802    -0.12960
C699        C  0.87951454  0.15874508  0.58513786     0.00690
C700        C  0.84293359  0.12198828  0.58593396    -0.11490
C701        C  0.84187913  0.08469410  0.62289467     0.03180
C702        C  0.87896918  0.08503117  0.66003248    -0.10910
H703        H  0.94419339  0.18517515  0.62199046     0.08770
H704        H  0.81561016  0.12176738  0.55697357     0.06300
H705        H  0.87898816  0.05699465  0.68852259     0.06150
C706        C  0.97943410  0.14286674  0.78449407     0.03190
C707        C  0.94623044  0.12073896  0.75074109    -0.12960
C708        C  0.95637508  0.12380979  0.69913046     0.00690
C709        C  0.00642577  0.13318459  0.68590352    -0.11490
C710        C  0.03877387  0.15082959  0.72222249     0.03180
C711        C  0.01717841  0.16980760  0.76464384    -0.10910
H712        H  0.91355784  0.10246202  0.76416671     0.08770
H713        H  0.01947347  0.12732185  0.64880963     0.06300
H714        H  0.03902132  0.19108241  0.79009930     0.06150
C715        C  0.78603741  0.95608445  0.60951365     0.03190
C716        C  0.74466152  0.96983580  0.58322294    -0.12960
C717        C  0.72243193  0.01469225  0.59409925     0.00690
C718        C  0.75403626  0.05393524  0.60572074    -0.11490
C719        C  0.80399784  0.04394518  0.61938813     0.03180
C720        C  0.81671682  0.99364224  0.62810455    -0.10910
H721        H  0.72298273  0.94060512  0.56737926     0.08770
H722        H  0.74015639  0.09104293  0.60296473     0.06300
H723        H  0.85041867  0.98368212  0.64705129     0.06150
C724        C  0.90817702  0.27803779  0.51418667     0.03190
C725        C  0.92123761  0.25606745  0.47004825    -0.12960
C726        C  0.89450003  0.21578126  0.45601444     0.00690
C727        C  0.87562553  0.18443572  0.49355690    -0.11490
C728        C  0.88316020  0.19665011  0.54394502     0.03180
C729        C  0.89550246  0.24648369  0.55365338    -0.10910
H730        H  0.93797606  0.27788628  0.44095780     0.08770
H731        H  0.85705077  0.15096093  0.48357821     0.06300
H732        H  0.89626610  0.26029597  0.59066476     0.06150
C733        C  0.01551937  0.09391194  0.28218850     0.03190
C734        C  0.05542897  0.10556909  0.25115072    -0.12960
C735        C  0.04619789  0.11889328  0.20126732     0.00690
C736        C  0.99594825  0.12854667  0.18843578    -0.11490
C737        C  0.95752884  0.10977552  0.21865901     0.03180
C738        C  0.97075084  0.08297309  0.25988965    -0.10910
H739        H  0.09246948  0.10407923  0.26551212     0.08770
H740        H  0.98671085  0.14953992  0.15568853     0.06300
H741        H  0.94114463  0.06711039  0.28155199     0.06150
C742        C  0.11756755  0.21752149  0.96182433     0.03190
C743        C  0.13587659  0.18742819  0.00055188    -0.12960
C744        C  0.12445743  0.19953615  0.05030162     0.00690
C745        C  0.10970237  0.24905418  0.05914136    -0.11490
C746        C  0.09988083  0.28072206  0.01889479     0.03180
C747        C  0.09174891  0.25937655  0.97363142    -0.10910
H748        H  0.15813301  0.15559961  0.99197949     0.08770
H749        H  0.10499212  0.26258722  0.09601516     0.06300
H750        H  0.07581479  0.28072688  0.94360505     0.06150
C751        C  0.08800861  0.12241768  0.16433725     0.03190
C752        C  0.08967988  0.16025505  0.12824352    -0.12960
C753        C  0.12680108  0.16149476  0.09148320     0.00690
C754        C  0.16291741  0.12369920  0.09181051    -0.11490
C755        C  0.16244318  0.08486452  0.12696468     0.03180
C756        C  0.12480718  0.08506967  0.16308795    -0.10910
H757        H  0.06116061  0.18822408  0.12797113     0.08770
H758        H  0.19098944  0.12367417  0.06358510     0.06300
H759        H  0.12338480  0.05539755  0.18980924     0.06150
C760        C  0.27908932  0.01168321  0.09451229     0.03190
C761        C  0.24881212  0.05153986  0.10807069    -0.12960
C762        C  0.19923423  0.04275558  0.12242002     0.00690
C763        C  0.18663904  0.99256727  0.13156300    -0.11490
C764        C  0.21650704  0.95433011  0.11171473     0.03180
C765        C  0.25606128  0.96777430  0.08296636    -0.10910
H766        H  0.26362887  0.08818234  0.10701093     0.08770
H767        H  0.15410236  0.98316275  0.15249348     0.06300
H768        H  0.27714769  0.93844736  0.06596809     0.06150
O769        O  0.22342270  0.16433278  0.75268215    -0.88290
C770        C  0.24353800  0.25873879  0.64307019     0.87740
Mg771      Mg  0.17738459  0.17486882  0.81202948     1.58150
O772        O  0.34037150  0.25179766  0.72655249    -0.88020
O773        O  0.30185890  0.14462942  0.74635216    -0.75350
C774        C  0.22181406  0.40382788  0.86302491     0.92790
O775        O  0.14744983  0.24465572  0.70555396    -0.75160
O776        O  0.18387386  0.37883679  0.87358352    -0.82670
Mg777      Mg  0.19390359  0.17972193  0.68018798     1.57960
C778        C  0.40673318  0.36582985  0.78390660     0.92710
O779        O  0.23995884  0.11597406  0.65814889    -0.80930
H780        H  0.39577038  0.21366343  0.75710059    -0.06270
C781        C  0.24431759  0.35981545  0.74503048     0.87650
O782        O  0.24156888  0.19644231  0.86103467    -0.75440
O783        O  0.25456673  0.22325986  0.66979676    -0.88200
O784        O  0.39149803  0.35014555  0.74234404    -0.81010
C785        C  0.36166049  0.27894487  0.59680419     0.92830
C786        C  0.27950930  0.09456362  0.64493071     0.92680
Mg787      Mg  0.30950335  0.32038744  0.82921306     1.57950
O788        O  0.26094284  0.38217787  0.84950600    -0.80940
O789        O  0.35949848  0.25783596  0.80466297    -0.75180
O790        O  0.34839274  0.23957498  0.61847311    -0.81020
O791        O  0.12021959  0.13765028  0.68612467    -0.82730
O792        O  0.15246544  0.26027437  0.89598234    -0.81050
C793        C  0.36696406  0.24067337  0.76203333     0.87120
O794        O  0.25001940  0.27429530  0.84138104    -0.88190
O795        O  0.28081314  0.33442240  0.75621717    -0.88300
O796        O  0.20246211  0.35340248  0.76486933    -0.75350
Mg797      Mg  0.32717387  0.19200297  0.68195581     1.57970
O798        O  0.37007869  0.31735069  0.62184900    -0.82730
H799        H  0.25427038  0.10987565  0.79192125    -0.06450
O800        O  0.16551906  0.24817290  0.78423132    -0.88000
H801        H  0.11312972  0.29015866  0.75322560    -0.06280
H802        H  0.28844308  0.24215101  0.89565209    -0.06450
C803        C  0.14032840  0.26148297  0.74837702     0.87100
C804        C  0.25912446  0.13792084  0.76408947     0.87680
C805        C  0.26062652  0.23830818  0.86767062     0.87730
H806        H  0.24771548  0.38696529  0.71598522    -0.06430
O807        O  0.26243828  0.30067656  0.64889619    -0.75460
Mg808      Mg  0.17731330  0.30635931  0.83029693     1.58000
H809        H  0.21517207  0.25447153  0.61559961    -0.06450
C810        C  0.09353592  0.14749148  0.72329629     0.92720
O811        O  0.13165081  0.18252772  0.88204256    -0.82690
C812        C  0.13600892  0.21875958  0.91084325     0.92780
O813        O  0.31851284  0.11938278  0.63802864    -0.82670
Mg814      Mg  0.32696137  0.32457986  0.69605181     1.58180
O815        O  0.11322430  0.15830901  0.76416973    -0.81010
O816        O  0.37870169  0.36758031  0.82132862    -0.82700
O817        O  0.71534979  0.30425756  0.32079280    -0.88290
C818        C  0.72781263  0.32881038  0.17886678     0.87740
Mg819      Mg  0.77710308  0.28883389  0.36450972     1.58150
O820        O  0.68137790  0.21445430  0.20601571    -0.88020
O821        O  0.64855198  0.26343504  0.30132974    -0.75350
C822        C  0.91110543  0.13638592  0.22824121     0.92790
O823        O  0.79828255  0.35552926  0.25840979    -0.75160
O824        O  0.91418725  0.16923811  0.26091554    -0.82670
Mg825      Mg  0.71619825  0.36626578  0.27437013     1.57960
C826        C  0.72146613  0.08875838  0.14749599     0.92710
O827        O  0.63200806  0.38154534  0.29428101    -0.80930
H828        H  0.63427950  0.17669084  0.24761732    -0.06270
C829        C  0.82349834  0.22351012  0.17234549     0.87650
O830        O  0.76151412  0.20731092  0.35639369    -0.75440
O831        O  0.70076326  0.32081454  0.21470338    -0.88200
O832        O  0.70365194  0.12988748  0.13236245    -0.81010
C833        C  0.63537061  0.27467690  0.09422609     0.92830
C834        C  0.59130161  0.36826827  0.27491814     0.92680
Mg835      Mg  0.78570900  0.13752083  0.23321147     1.57950
O836        O  0.86951339  0.12144592  0.21207245    -0.80940
O837        O  0.70399257  0.14992457  0.25020986    -0.75180
O838        O  0.62302018  0.29533300  0.13443361    -0.81020
O839        O  0.74201845  0.41513769  0.33267089    -0.82730
O840        O  0.88091503  0.20906506  0.36909153    -0.81050
C841        C  0.67147495  0.17981194  0.23413547     0.87120
O842        O  0.80278221  0.18390369  0.29080102    -0.88190
O843        O  0.78754236  0.19835367  0.18473367    -0.88300
O844        O  0.85333894  0.24135164  0.20337497    -0.75350
Mg845      Mg  0.63774311  0.27663892  0.21858997     1.57970
O846        O  0.66518095  0.23844996  0.09336052    -0.82730
H847        H  0.67663045  0.26733927  0.37030763    -0.06450
O848        O  0.82104028  0.28976218  0.30064921    -0.88000
H849        H  0.86796523  0.32860218  0.26027887    -0.06280
H850        H  0.76432682  0.13753416  0.33182951    -0.06450
C851        C  0.83083907  0.32523773  0.27363803     0.87100
C852        C  0.67952939  0.27893627  0.33252612     0.87680
C853        C  0.77695268  0.17453790  0.32715138     0.87730
H854        H  0.82800449  0.23290331  0.13393645    -0.06430
O855        O  0.74196493  0.29527310  0.14972160    -0.75460
Mg856      Mg  0.86528647  0.22847044  0.28579626     1.58000
H857        H  0.74227569  0.36519619  0.17428697    -0.06450
C858        C  0.77701197  0.41286845  0.36374805     0.92720
O859        O  0.83718493  0.26283491  0.41294824    -0.82690
C860        C  0.86789448  0.22740611  0.41020601     0.92780
O861        O  0.58955775  0.33673156  0.24091609    -0.82670
Mg862      Mg  0.72504908  0.21346893  0.14225237     1.58180
O863        O  0.79667489  0.37212522  0.37734226    -0.81010
O864        O  0.75685123  0.08638677  0.17815012    -0.82700
C865        C  0.13452359  0.72267097  0.03913876     0.03190
C866        C  0.12704033  0.77001206  0.02283862    -0.12960
C867        C  0.11037159  0.78161491  0.97670291     0.00690
C868        C  0.10449939  0.74406436  0.94206270    -0.11490
C869        C  0.11813607  0.69471004  0.95482673     0.03180
C870        C  0.13266690  0.68422870  0.00467862    -0.10910
H871        H  0.13157404  0.80001149  0.04882905     0.08770
H872        H  0.09004194  0.75322617  0.90603495     0.06300
H873        H  0.14267890  0.64732459  0.01615256     0.06150
C874        C  0.15593552  0.58120198  0.88006591     0.03190
C875        C  0.15494215  0.61823543  0.91603341    -0.12960
C876        C  0.11775988  0.65495957  0.91636299     0.00690
C877        C  0.08115534  0.65419854  0.87913039    -0.11490
C878        C  0.08142790  0.61816532  0.84198502     0.03180
C879        C  0.11908097  0.58189914  0.84323107    -0.10910
H880        H  0.18346502  0.61853340  0.94380967     0.08770
H881        H  0.05215597  0.68163542  0.87914817     0.06300
H882        H  0.11954533  0.55369027  0.81542739     0.06150
C883        C  0.95317525  0.60527794  0.78488179     0.03190
C884        C  0.99046006  0.62348828  0.81615882    -0.12960
C885        C  0.04094163  0.61563154  0.80375024     0.00690
C886        C  0.05124683  0.60439112  0.75362305    -0.11490
C887        C  0.01201857  0.59252619  0.72184857     0.03180
C888        C  0.96748647  0.57968781  0.74372804    -0.10910
H889        H  0.98014406  0.64131434  0.85006797     0.08770
H890        H  0.08848413  0.60413034  0.73979257     0.06300
H891        H  0.93845185  0.56372916  0.72172125     0.06150
C892        C  0.22409538  0.45838071  0.86358457     0.03190
C893        C  0.27028564  0.47743894  0.85326076    -0.12960
C894        C  0.28406599  0.52157663  0.87244619     0.00690
C895        C  0.24683778  0.55555650  0.88567627    -0.11490
C896        C  0.19632768  0.54275779  0.87923581     0.03180
C897        C  0.18530634  0.49212642  0.87179548    -0.10910
H898        H  0.29942863  0.45439519  0.83854584     0.08770
H899        H  0.25690023  0.59092799  0.90019957     0.06300
H900        H  0.14762099  0.47948305  0.87218197     0.06150
O901        O  0.20561223  0.67877603  0.21477653    -0.88290
C902        C  0.17556962  0.82178014  0.22683748     0.87740
Mg903      Mg  0.21800536  0.63709470  0.27819767     1.58150
O904        O  0.29472548  0.80310409  0.18902062    -0.88020
O905        O  0.25712474  0.70354049  0.15704395    -0.75350
C906        C  0.36612911  0.77544269  0.41320111     0.92790
O907        O  0.14837465  0.73980998  0.29558132    -0.75160
O908        O  0.33428490  0.74144717  0.41522207    -0.82670
Mg909      Mg  0.14260188  0.72440504  0.21288172     1.57960
C910        C  0.41364650  0.86627336  0.22911146     0.92710
O911        O  0.13277210  0.70520987  0.12721366    -0.80930
H912        H  0.33617640  0.77056430  0.13898456    -0.06270
C913        C  0.27584753  0.83051097  0.32588935     0.87650
O914        O  0.30126209  0.64722523  0.26551151    -0.75440
O915        O  0.18787123  0.78597694  0.20152340    -0.88200
O916        O  0.37213039  0.88083860  0.21195306    -0.81010
C917        C  0.22925767  0.90905978  0.13915560     0.92830
C918        C  0.15467214  0.72313100  0.08941001     0.92680
Mg919      Mg  0.36760256  0.77555503  0.28989983     1.57950
O920        O  0.38043573  0.79448880  0.37264100    -0.80940
O921        O  0.36118361  0.76126187  0.20846542    -0.75180
O922        O  0.21474861  0.86669546  0.12532922    -0.81020
O923        O  0.09240722  0.66514069  0.23633501    -0.82730
O924        O  0.29646846  0.63234992  0.38113394    -0.81050
C925        C  0.33167969  0.77943527  0.17707123     0.87120
O926        O  0.32173044  0.71495318  0.30408524    -0.88190
O927        O  0.30466153  0.82162993  0.29176638    -0.88300
O928        O  0.25937410  0.79757782  0.35484565    -0.75350
Mg929      Mg  0.23910306  0.78428558  0.14353624     1.57970
O930        O  0.26272222  0.91395055  0.17133807    -0.82730
H931        H  0.25103169  0.63303376  0.18004883    -0.06450
O932        O  0.21521546  0.70084748  0.32050520    -0.88000
H933        H  0.17280574  0.73896127  0.36602807    -0.06280
H934        H  0.37031118  0.67518215  0.26731900    -0.06450
C935        C  0.17824357  0.72615013  0.32912396     0.87100
C936        C  0.23716401  0.67009374  0.18297283     0.87680
C937        C  0.33280103  0.67858845  0.27939158     0.87730
H938        H  0.26145099  0.86723261  0.32845289    -0.06430
O939        O  0.20643179  0.85237523  0.24361977    -0.75460
Mg940      Mg  0.27563091  0.71606200  0.36599407     1.58000
H941        H  0.13734256  0.82574764  0.23699020    -0.06450
C942        C  0.09280586  0.63673878  0.27391489     0.92720
O943        O  0.24009290  0.59014921  0.33981436    -0.82690
C944        C  0.27615127  0.59185249  0.36948823     0.92780
O945        O  0.18927511  0.75346298  0.09357434    -0.82670
Mg946      Mg  0.28887914  0.86575262  0.23115971     1.58180
O947        O  0.13291633  0.62462141  0.29578972    -0.81010
O948        O  0.41694676  0.83477369  0.26398958    -0.82700
C949        C  0.78039899  0.99165675  0.09914768     0.03190
C950        C  0.75300748  0.03459254  0.09108925    -0.12960
C951        C  0.71284822  0.04330732  0.12007735     0.00690
C952        C  0.68595747  0.00237886  0.13741165    -0.11490
C953        C  0.70219825  0.95371901  0.12560171     0.03180
C954        C  0.75303082  0.94866915  0.11117033    -0.10910
H955        H  0.76995277  0.06696645  0.07486177     0.08770
H956        H  0.65213505  0.00884350  0.15739253     0.06300
H957        H  0.77007138  0.91289159  0.10765846     0.06150
C958        C  0.66614236  0.91080207  0.12787461     0.03190
C959        C  0.66433528  0.87496077  0.09004023    -0.12960
C960        C  0.62641086  0.83899564  0.08835240     0.00690
C961        C  0.58965838  0.83998038  0.12553289    -0.11490
C962        C  0.58997783  0.87503806  0.16363743     0.03180
C963        C  0.62894409  0.90936192  0.16450164    -0.10910
H964        H  0.69169010  0.87599910  0.06111014     0.08770
H965        H  0.55984173  0.81388812  0.12402623     0.06300
H966        H  0.62915401  0.93659230  0.19318334     0.06150
C967        C  0.61138026  0.78670169  0.95768868     0.03190
C968        C  0.58405606  0.74603368  0.97051297    -0.12960
C969        C  0.59521127  0.72259254  0.01480506     0.00690
C970        C  0.60702275  0.75291211  0.05491374    -0.11490
C971        C  0.62160198  0.80264177  0.04624930     0.03180
C972        C  0.63049847  0.81619839  0.99610507    -0.10910
H973        H  0.56780010  0.72526426  0.94080321     0.08770
H974        H  0.60363191  0.73808950  0.09162346     0.06300
H975        H  0.65020583  0.84944219  0.98693449     0.06150
C976        C  0.45946453  0.89226725  0.21710903     0.03190
C977        C  0.47316804  0.91990030  0.25683631    -0.12960
C978        C  0.51660585  0.90599913  0.28028215     0.00690
C979        C  0.55666708  0.89278368  0.25014721    -0.11490
C980        C  0.54788605  0.87965123  0.20031486     0.03180
C981        C  0.49749896  0.87215836  0.18715337    -0.10910
H982        H  0.44396468  0.93752893  0.27768726     0.08770
H983        H  0.59332567  0.89375456  0.26521384     0.06300
H984        H  0.48782105  0.85292289  0.15394586     0.06150
C985        C  0.91547971  0.62387747  0.34015819     0.03190
C986        C  0.87755603  0.58817310  0.34071828    -0.12960
C987        C  0.83980549  0.58809111  0.37681811     0.00690
C988        C  0.84026198  0.62537228  0.41278631    -0.11490
C989        C  0.87730401  0.66164478  0.41367043     0.03180
C990        C  0.91450703  0.66042943  0.37692309    -0.10910
H991        H  0.87819981  0.55943431  0.31351975     0.08770
H992        H  0.81237065  0.62525566  0.44123613     0.06300
H993        H  0.94349443  0.68747705  0.37773527     0.06150
C994        C  0.04586227  0.61131024  0.28391398     0.03190
C995        C  0.03238668  0.58479899  0.24326307    -0.12960
C996        C  0.98719386  0.59569465  0.22160482     0.00690
C997        C  0.94767772  0.60682913  0.25330466    -0.11490
C998        C  0.95726702  0.62013056  0.30292373     0.03180
C999        C  0.00772281  0.62926960  0.31515558    -0.10910
H1000       H  0.06184966  0.56896171  0.22138623     0.08770
H1001       H  0.91062551  0.60384068  0.23980510     0.06300
H1002       H  0.01730468  0.64821809  0.34855834     0.06150
C1003       C  0.89049015  0.71447968  0.54349456     0.03190
C1004       C  0.87237597  0.68426978  0.50535988    -0.12960
C1005       C  0.88028824  0.69825853  0.45517454     0.00690
C1006       C  0.89150093  0.74855442  0.44604615    -0.11490
C1007       C  0.90378823  0.77889425  0.48596307     0.03180
C1008       C  0.91653150  0.75576586  0.53012131    -0.10910
H1009       H  0.85432359  0.65014513  0.51474777     0.08770
H1010       H  0.89081345  0.76370638  0.40916843     0.06300
H1011       H  0.93271457  0.77688936  0.55960090     0.06150
C1012       C  0.72126039  0.51572286  0.40438502     0.03190
C1013       C  0.74415220  0.47132836  0.41638518    -0.12960
C1014       C  0.78583266  0.45861213  0.39037116     0.00690
C1015       C  0.81623717  0.49685102  0.37219867    -0.11490
C1016       C  0.80260392  0.54681072  0.38058153     0.03180
C1017       C  0.75231769  0.55579623  0.39335381    -0.10910
H1018       H  0.72274028  0.44154059  0.43215788     0.08770
H1019       H  0.85029349  0.48757768  0.35372613     0.06300
H1020       H  0.73781231  0.59265981  0.39573308     0.06150
C1021       C  0.96210857  0.85942544  0.27179106     0.03190
C1022       C  0.97797842  0.86053562  0.22349005    -0.12960
C1023       C  0.02178988  0.88030689  0.20957472     0.00690
C1024       C  0.05705556  0.89077120  0.24679580    -0.11490
C1025       C  0.04667587  0.87831383  0.29742813     0.03180
C1026       C  0.99707234  0.86523381  0.30959740    -0.10910
H1027       H  0.95191484  0.85217258  0.19418993     0.08770
H1028       H  0.09181475  0.90708850  0.23652137     0.06300
H1029       H  0.98632595  0.85852341  0.34740311     0.06150
C1030       C  0.12201308  0.83996310  0.41319517     0.03190
C1031       C  0.08671945  0.84098886  0.37462383    -0.12960
C1032       C  0.08627268  0.87812503  0.33733994     0.00690
C1033       C  0.12318366  0.91467332  0.33906858    -0.11490
C1034       C  0.15941737  0.91478767  0.37672682     0.03180
C1035       C  0.15816691  0.87715012  0.41327221    -0.10910
H1036       H  0.05870185  0.81293111  0.37412709     0.08770
H1037       H  0.12334629  0.94350742  0.31140725     0.06300
H1038       H  0.18508704  0.87748412  0.44260056     0.06150
C1039       C  0.21577935  0.04327303  0.39060726     0.03190
C1040       C  0.25721212  0.02887609  0.41634371    -0.12960
C1041       C  0.27887333  0.98408461  0.40426129     0.00690
C1042       C  0.24696793  0.94514068  0.39323166    -0.11490
C1043       C  0.19696506  0.95555583  0.38067109     0.03180
C1044       C  0.18428739  0.00604978  0.37259232    -0.10910
H1045       H  0.27945131  0.05774666  0.43209111     0.08770
H1046       H  0.26070041  0.90797041  0.39554402     0.06300
H1047       H  0.15036679  0.01633088  0.35421866     0.06150
C1048       C  0.09326692  0.72101630  0.48577896     0.03190
C1049       C  0.10550783  0.75225699  0.44578841    -0.12960
C1050       C  0.11818282  0.80215856  0.45489495     0.00690
C1051       C  0.12691851  0.81430406  0.50530399    -0.11490
C1052       C  0.10798658  0.78347004  0.54341319     0.03180
C1053       C  0.08069903  0.74340308  0.52982552    -0.10910
H1054       H  0.10459244  0.73806684  0.40890743     0.08770
H1055       H  0.14607529  0.84753223  0.51494927     0.06300
H1056       H  0.06397058  0.72190543  0.55916446     0.06150
C1057       C  0.21913769  0.01293562  0.89769993     0.03190
C1058       C  0.24736033  0.05436716  0.88300790    -0.12960
C1059       C  0.29885100  0.04774290  0.87326752     0.00690
C1060       C  0.31491635  0.99795118  0.86676033    -0.11490
C1061       C  0.28598628  0.95881994  0.88610229     0.03180
C1062       C  0.24553043  0.97171652  0.91391517    -0.10910
H1063       H  0.22993249  0.08994308  0.87810938     0.08770
H1064       H  0.34940977  0.98970601  0.84858573     0.06300
H1065       H  0.22617362  0.94206938  0.93243108     0.06150
C1066       C  0.37138397  0.16486495  0.90760341     0.03190
C1067       C  0.33501060  0.12749401  0.90661675    -0.12960
C1068       C  0.33454376  0.09075249  0.86968960     0.00690
C1069       C  0.37160043  0.09250006  0.83292394    -0.11490
C1070       C  0.40878763  0.12891282  0.83245641     0.03180
C1071       C  0.40796849  0.16473619  0.87008129    -0.10910
H1072       H  0.30769676  0.12609389  0.93559023     0.08770
H1073       H  0.37249573  0.06425991  0.80518094     0.06300
H1074       H  0.43677341  0.19200102  0.87092976     0.06150
C1075       C  0.39744179  0.28284952  0.98110280     0.03190
C1076       C  0.38384036  0.25250447  0.94117141    -0.12960
C1077       C  0.37477937  0.20140364  0.94981247     0.00690
C1078       C  0.36937518  0.18656572  0.00018784    -0.11490
C1079       C  0.38778684  0.21695798  0.03824994     0.03180
C1080       C  0.41217783  0.25917277  0.02442705    -0.10910
H1081       H  0.38002504  0.26811869  0.90461327     0.08770
H1082       H  0.35268995  0.15177049  0.00967025     0.06300
H1083       H  0.42919328  0.28006217  0.05359503     0.06150
C1084       C  0.48108998  0.10089044  0.71400469     0.03190
C1085       C  0.52322065  0.08327739  0.73774793    -0.12960
C1086       C  0.53843046  0.10853060  0.77853404     0.00690
C1087       C  0.50124255  0.12894980  0.80933405    -0.11490
C1088       C  0.45066109  0.12541618  0.79526684     0.03180
C1089       C  0.44161840  0.11677707  0.74431155    -0.10910
H1090       H  0.55148364  0.06415239  0.71696355     0.08770
H1091       H  0.51147183  0.14560468  0.84379490     0.06300
H1092       H  0.40526632  0.12249107  0.72890289     0.06150
O1093       O  0.96759109  0.99301556  0.41687590    -0.88290
C1094       C  0.98769718  0.10760792  0.50325243     0.87740
Mg1095     Mg  0.92604620  0.93240391  0.43433603     1.58150
O1096       O  0.08809590  0.02869627  0.49836582    -0.88020
O1097       O  0.04556963  0.00144329  0.39581579    -0.75350
C1098       C  0.98269443  0.90033011  0.66602037     0.92790
O1099       O  0.89403599  0.04237081  0.49639511    -0.75160
O1100       O  0.94577242  0.88639068  0.64118280    -0.82670
Mg1101     Mg  0.93546385  0.06443451  0.42759651     1.57960
C1102       C  0.16342655  0.97728735  0.61099133     0.92710
O1103       O  0.97598390  0.08144866  0.35783780    -0.80930
H1104       H  0.14166255  0.99681198  0.45967521    -0.06270
C1105       C  0.99765944  0.01326349  0.61122936     0.87650
O1106       O  0.99481868  0.89043874  0.45720339    -0.75440
O1107       O  0.99780361  0.08022101  0.46852686    -0.88200
O1108       O  0.14618197  0.01782084  0.59345353    -0.81010
C1109       C  0.10303235  0.16052981  0.51717113     0.92830
C1110       C  0.01570601  0.09471046  0.33682211     0.92680
Mg1111     Mg  0.06487123  0.92923366  0.57652637     1.57950
O1112       O  0.02211498  0.91331064  0.64459201    -0.80940
O1113       O  0.10971873  0.95133797  0.50922348    -0.75180
O1114       O  0.08799489  0.14043180  0.47760504    -0.81020
O1115       O  0.86007732  0.05107929  0.39086431    -0.82730
O1116       O  0.91594987  0.85394748  0.52604848    -0.81050
C1117       C  0.11477250  0.99299477  0.48842812     0.87120
O1118       O  0.00428229  0.91449681  0.53361761    -0.88190
O1119       O  0.03388725  0.00124586  0.58602030    -0.88300
O1120       O  0.95587044  0.99296487  0.60693198    -0.75350
Mg1121     Mg  0.06914829  0.07018575  0.43648427     1.57970
O1122       O  0.11684549  0.13432102  0.55390419    -0.82730
H1123       H  0.00007066  0.95123947  0.36614370    -0.06450
O1124       O  0.91615396  0.96490515  0.50495039    -0.88000
H1125       H  0.86363399  0.99572662  0.54558596    -0.06280
H1126       H  0.04512311  0.86160442  0.50392991    -0.06450
C1127       C  0.88957276  0.00025488  0.51619606     0.87100
C1128       C  0.00368934  0.98135515  0.39131912     0.87680
C1129       C  0.01548324  0.88731450  0.49899289     0.87730
H1130       H  0.00116769  0.04344531  0.63624613    -0.06430
O1131       O  0.00950861  0.10437928  0.54443256    -0.75460
Mg1132     Mg  0.93294071  0.92389132  0.56638182     1.58000
H1133       H  0.95817909  0.13377188  0.49898013    -0.06450
C1134       C  0.83507938  0.01353727  0.40352637     0.92720
O1135       O  0.88807164  0.85909774  0.44950854    -0.82690
C1136       C  0.90206030  0.83349085  0.48644938     0.92780
O1137       O  0.05307994  0.10758257  0.36186683    -0.82670
Mg1138     Mg  0.07738713  0.06103001  0.56904128     1.58180
O1139       O  0.85645904  0.97382127  0.41688323    -0.81010
O1140       O  0.13619800  0.94024055  0.61828799    -0.82700
C1141       C  0.01547349  0.39852799  0.78266837     0.03190
C1142       C  0.97155845  0.41245057  0.75977279    -0.12960
C1143       C  0.95727616  0.38698580  0.71869860     0.00690
C1144       C  0.99519115  0.36807580  0.68768922    -0.11490
C1145       C  0.04580868  0.37376301  0.70146325     0.03180
C1146       C  0.05500541  0.38390046  0.75201568    -0.10910
H1147       H  0.94257085  0.43009970  0.78085284     0.08770
H1148       H  0.98549575  0.35080768  0.65339203     0.06300
H1149       H  0.09184277  0.38049726  0.76693064     0.06150
C1150       C  0.16336972  0.40775446  0.62869132     0.03190
C1151       C  0.12541328  0.40676192  0.66456009    -0.12960
C1152       C  0.08804480  0.37043072  0.66463794     0.00690
C1153       C  0.08968395  0.33413099  0.62755682    -0.11490
C1154       C  0.12711729  0.33356295  0.59093625     0.03180
C1155       C  0.16360895  0.37060759  0.59231264    -0.10910
H1156       H  0.12412204  0.43533528  0.69194298     0.08770
H1157       H  0.06093746  0.30682982  0.62639728     0.06300
H1158       H  0.19162568  0.37140885  0.56397992     0.06150
C1159       C  0.10256378  0.21549472  0.51789767     0.03190
C1160       C  0.11570955  0.24597953  0.55779590    -0.12960
C1161       C  0.12460181  0.29697512  0.54899386     0.00690
C1162       C  0.13040288  0.31185614  0.49873050    -0.11490
C1163       C  0.11268649  0.28136082  0.46054624     0.03180
C1164       C  0.08873993  0.23878813  0.47403254    -0.10910
H1165       H  0.11910745  0.23061851  0.59452806     0.08770
H1166       H  0.14682898  0.34682439  0.48941147     0.06300
H1167       H  0.07248094  0.21766195  0.44461045     0.06150
C1168       C  0.21580395  0.53825871  0.61298721     0.03190
C1169       C  0.25778587  0.52483337  0.58780989    -0.12960
C1170       C  0.28140946  0.48127873  0.60189288     0.00690
C1171       C  0.25110777  0.44124300  0.61588820    -0.11490
C1172       C  0.20005680  0.44980523  0.62557539     0.03180
C1173       C  0.18532188  0.49999805  0.63151336    -0.10910
H1174       H  0.27868668  0.55420803  0.57062884     0.08770
H1175       H  0.26665971  0.40465621  0.61940274     0.06300
H1176       H  0.15052674  0.50923155  0.64859316     0.06150
O1177       O  0.32057081  0.28639408  0.19714478    -0.88290
C1178       C  0.17805014  0.27500033  0.17304353     0.87740
Mg1179     Mg  0.36388104  0.22394966  0.21123624     1.58150
O1180       O  0.20154944  0.31896957  0.28874191    -0.88020
O1181       O  0.29909802  0.35090862  0.24101620    -0.75350
C1182       C  0.22576353  0.08959077  0.36414856     0.92790
O1183       O  0.25766826  0.20406403  0.14598178    -0.75160
O1184       O  0.26003212  0.08712971  0.33234948    -0.82670
Mg1185     Mg  0.27353602  0.28592065  0.13571251     1.57960
C1186       C  0.13858156  0.27371961  0.41335570     0.92710
O1187       O  0.29372203  0.36945118  0.12094030    -0.80930
H1188       H  0.24133769  0.36557448  0.32764786    -0.06270
C1189       C  0.17085938  0.17812422  0.27597729     0.87650
O1190       O  0.35502347  0.23833816  0.29385076    -0.75440
O1191       O  0.21399837  0.30103229  0.18223364    -0.88200
O1192       O  0.12400416  0.29347962  0.37283433    -0.81010
C1193       C  0.09183083  0.36571544  0.22686816     0.92830
C1194       C  0.27571565  0.41040694  0.13538105     0.92680
Mg1195     Mg  0.22860455  0.21394327  0.36397756     1.57950
O1196       O  0.20794772  0.13066078  0.37841531    -0.80940
O1197       O  0.24439485  0.29571937  0.35375247    -0.75180
O1198       O  0.13289032  0.37847138  0.20768429    -0.81020
O1199       O  0.33106169  0.26030984  0.08479026    -0.82730
O1200       O  0.36895966  0.12113875  0.29209456    -0.81050
C1201       C  0.22849930  0.32849105  0.32404187     0.87120
O1202       O  0.28856279  0.19861074  0.31778463    -0.88190
O1203       O  0.18169701  0.21317650  0.30250928    -0.88300
O1204       O  0.20281483  0.14829344  0.25915685    -0.75350
Mg1205     Mg  0.21675355  0.36319319  0.22710219     1.57970
O1206       O  0.08943275  0.33522604  0.26257955    -0.82730
H1207       H  0.36872987  0.32413502  0.23629672    -0.06450
O1208       O  0.30004475  0.18070421  0.21121924    -0.88000
H1209       H  0.25982887  0.13434277  0.17249719    -0.06280
H1210       H  0.33072014  0.23532758  0.36424748    -0.06450
C1211       C  0.27305614  0.17128775  0.17593944     0.87100
C1212       C  0.33115343  0.32113207  0.22420182     0.87680
C1213       C  0.32531022  0.22361076  0.32698163     0.87730
H1214       H  0.13315489  0.17483821  0.26431507    -0.06430
O1215       O  0.14802495  0.26033515  0.20586961    -0.75460
Mg1216     Mg  0.28516214  0.13639070  0.27289237     1.58000
H1217       H  0.17414266  0.26192520  0.13611401    -0.06450
C1218       C  0.36234247  0.22529273  0.08565271     0.92720
O1219       O  0.41216165  0.16326728  0.23613150    -0.82690
C1220       C  0.40990709  0.13338680  0.27238869     0.92780
O1221       O  0.24197289  0.41257761  0.16773985    -0.82670
Mg1222     Mg  0.13802089  0.27509577  0.28804673     1.58180
O1223       O  0.37674248  0.20531159  0.12614689    -0.81010
O1224       O  0.17064863  0.23944740  0.41441069    -0.82700
C1225       C  0.83927487  0.41539799  0.12422229     0.03190
C1226       C  0.84154048  0.37910728  0.08746276    -0.12960
C1227       C  0.88003767  0.34392551  0.08564198     0.00690
C1228       C  0.91675338  0.34496376  0.12278470    -0.11490
C1229       C  0.91577331  0.38023634  0.16082211     0.03180
C1230       C  0.87666065  0.41534820  0.16073625    -0.10910
H1231       H  0.81329138  0.37881355  0.05939016     0.08770
H1232       H  0.94657802  0.31848578  0.12180747     0.06300
H1233       H  0.87598148  0.44348567  0.18856508     0.06150
C1234       C  0.88753519  0.21914625  0.02199421     0.03190
C1235       C  0.86540252  0.23027595  0.97851750    -0.12960
C1236       C  0.85972306  0.27786086  0.96206737     0.00690
C1237       C  0.86427202  0.31642686  0.99635311    -0.11490
C1238       C  0.88053413  0.30542070  0.04566931     0.03180
C1239       C  0.89648039  0.25637039  0.05631819    -0.10910
H1240       H  0.85875738  0.20000904  0.95321724     0.08770
H1241       H  0.85465196  0.35357164  0.98537975     0.06300
H1242       H  0.91410556  0.24687322  0.09081983     0.06150
C1243       C  0.98793919  0.40714507  0.27952235     0.03190
C1244       C  0.03216428  0.41935676  0.25684267    -0.12960
C1245       C  0.04571358  0.39256094  0.21627416     0.00690
C1246       C  0.00766729  0.37427106  0.18571405    -0.11490
C1247       C  0.95725199  0.38334986  0.19838437     0.03180
C1248       C  0.94797579  0.39556137  0.24849780    -0.10910
H1249       H  0.06158044  0.43545630  0.27823844     0.08770
H1250       H  0.01744924  0.35552472  0.15217367     0.06300
H1251       H  0.91101215  0.39660465  0.26300448     0.06150
C1252       C  0.71857462  0.48401564  0.09367010     0.03190
C1253       C  0.74070845  0.52775645  0.07923587    -0.12960
C1254       C  0.78035020  0.54268756  0.10658295     0.00690
C1255       C  0.81178217  0.50596476  0.12715053    -0.11490
C1256       C  0.80022155  0.45546599  0.12045927     0.03180
C1257       C  0.75036565  0.44499226  0.10761031    -0.10910
H1258       H  0.71904915  0.55625153  0.06100755     0.08770
H1259       H  0.84506425  0.51664897  0.14598062     0.06300
H1260       H  0.73677591  0.40791473  0.10714590     0.06150
C1261       C  0.91223200  0.87596108  0.83974096     0.03190
C1262       C  0.91158024  0.83935062  0.87710141    -0.12960
C1263       C  0.87530575  0.83896546  0.91474724     0.00690
C1264       C  0.83886703  0.87661660  0.91399771    -0.11490
C1265       C  0.83814937  0.91419874  0.87725811     0.03180
C1266       C  0.87509207  0.91299137  0.84043727    -0.10910
H1267       H  0.94025943  0.81154651  0.87757901     0.08770
H1268       H  0.81146330  0.87740637  0.94287538     0.06300
H1269       H  0.87568575  0.94169604  0.81264199     0.06150
C1270       C  0.04176072  0.88850328  0.78327637     0.03190
C1271       C  0.02757406  0.91508259  0.74225652    -0.12960
C1272       C  0.98290224  0.90294516  0.72052207     0.00690
C1273       C  0.94344292  0.89157520  0.75213260    -0.11490
C1274       C  0.95342809  0.87863744  0.80197189     0.03180
C1275       C  0.00398379  0.86918111  0.81402486    -0.10910
H1276       H  0.05661516  0.93141494  0.72016065     0.08770
H1277       H  0.90625254  0.89348377  0.73829936     0.06300
H1278       H  0.01394404  0.84922456  0.84720451     0.06150
C1279       C  0.78261484  0.04499386  0.88809335     0.03190
C1280       C  0.74351999  0.03189113  0.91754436    -0.12960
C1281       C  0.72067170  0.98768003  0.90676970     0.00690
C1282       C  0.75125349  0.94745689  0.89467396    -0.11490
C1283       C  0.80086827  0.95619090  0.88045946     0.03180
C1284       C  0.81265864  0.00624422  0.86914230    -0.10910
H1285       H  0.72231850  0.06145134  0.93399560     0.08770
H1286       H  0.73664565  0.91068919  0.89613433     0.06300
H1287       H  0.84384024  0.01494341  0.84601415     0.06150
C1288       C  0.88678589  0.78195824  0.04500420     0.03190
C1289       C  0.91478824  0.74181994  0.03186703    -0.12960
C1290       C  0.90415605  0.72001412  0.98699350     0.00690
C1291       C  0.89255958  0.75156565  0.94710530    -0.11490
C1292       C  0.87873362  0.80121771  0.95637181     0.03180
C1293       C  0.86844986  0.81292989  0.00656828    -0.10910
H1294       H  0.93073397  0.71995288  0.06152851     0.08770
H1295       H  0.89474540  0.73777159  0.91010580     0.06300
H1296       H  0.84708418  0.84521030  0.01582022     0.06150
O1297       O  0.18046165  0.71038152  0.70057990    -0.88290
C1298       C  0.32118375  0.72230161  0.66861687     0.87740
Mg1299     Mg  0.13630470  0.77228687  0.71476268     1.58150
O1300       O  0.30053064  0.68042748  0.78654840    -0.88020
O1301       O  0.20312842  0.64480863  0.74317839    -0.75350
C1302       C  0.27580838  0.91267096  0.85944544     0.92790
O1303       O  0.23907007  0.79276464  0.64516969    -0.75160
O1304       O  0.24046641  0.91493006  0.82860023    -0.82670
Mg1305     Mg  0.22402179  0.71044450  0.63660428     1.57960
C1306       C  0.36492186  0.72599851  0.90732186     0.92710
O1307       O  0.20483692  0.62579615  0.62419581    -0.80930
H1308       H  0.26175445  0.63483881  0.82854553    -0.06270
C1309       C  0.32862486  0.82284287  0.76961808     0.87650
O1310       O  0.14731145  0.75906943  0.79743431    -0.75440
O1311       O  0.28604857  0.69575177  0.67995046    -0.88200
O1312       O  0.37786267  0.70636822  0.86669700    -0.81010
C1313       C  0.41031081  0.63384070  0.72461495     0.92830
C1314       C  0.22446601  0.58513334  0.63856103     0.92680
Mg1315     Mg  0.27487234  0.78723654  0.86054405     1.57950
O1316       O  0.29480370  0.87149810  0.87306435    -0.80940
O1317       O  0.25952594  0.70511775  0.85201470    -0.75180
O1318       O  0.36930707  0.61948219  0.70674575    -0.81020
O1319       O  0.16390490  0.73581192  0.58784047    -0.82730
O1320       O  0.12976929  0.87780879  0.79098754    -0.81050
C1321       C  0.27444225  0.67178125  0.82298024     0.87120
O1322       O  0.21252076  0.80219907  0.81776915    -0.88190
O1323       O  0.31866308  0.78734797  0.79659429    -0.88300
O1324       O  0.29612264  0.85321599  0.75440334    -0.75350
Mg1325     Mg  0.28526804  0.63420196  0.72718760     1.57970
O1326       O  0.41231771  0.66593635  0.75819627    -0.82730
H1327       H  0.13334300  0.67148548  0.74078445    -0.06450
O1328       O  0.19874160  0.81744906  0.71107968    -0.88000
H1329       H  0.23721641  0.86301978  0.66875719    -0.06280
H1330       H  0.17190439  0.76628172  0.86731932    -0.06450
C1331       C  0.22455625  0.82608982  0.67443873     0.87100
C1332       C  0.17056514  0.67498004  0.72768040     0.87680
C1333       C  0.17669029  0.77646765  0.82918262     0.87730
H1334       H  0.36585454  0.82636789  0.75645228    -0.06430
O1335       O  0.35125363  0.73896723  0.70010086    -0.75460
Mg1336     Mg  0.21400109  0.86390181  0.77061834     1.58000
H1337       H  0.32416307  0.73414766  0.63087600    -0.06450
C1338       C  0.13422205  0.77216912  0.58974567     0.92720
O1339       O  0.08683058  0.83145100  0.73927157    -0.82690
C1340       C  0.08877285  0.86303201  0.77333689     0.92780
O1341       O  0.25941745  0.58374813  0.66974413    -0.82670
Mg1342     Mg  0.36296841  0.72544342  0.78254240     1.58180
O1343       O  0.12169529  0.79163344  0.63057924    -0.81010
O1344       O  0.33481859  0.76195478  0.90891403    -0.82700
loop_ 
_geom_bond_atom_site_label_1 
_geom_bond_atom_site_label_2 
_geom_bond_distance 
_geom_bond_site_symmetry_2 
_ccdc_geom_bond_type 
O1           Mg3   2.073       .  S
O1           Mg9   2.115       .  S
O1           C36   1.238       .  S
C2           O15   1.238       .  S
C2           O39   1.275       .  A
C2           H41   1.074       .  S
Mg3          O32   2.064       .  S
Mg3          O47   2.345       .  S
Mg3          O43   2.199       .  S
Mg3          O14   2.291       .  S
O4          Mg46   2.088       .  S
O4          Mg29   2.102       .  S
O4           C25   1.236       .  S
O5           C36   1.270       .  A
O5          Mg29   2.276       .  S
C6            O8   1.256       .  A
C6           O20   1.282       .  A
C6         C1021   1.474       .  S
O7           C35   1.266       .  A
O7           Mg9   2.257       .  S
O8          Mg40   2.070       .  S
Mg9          O15   2.114       .  S
Mg9          O23   2.214       .  S
Mg9          O11   2.334       .  S
C10          O48   1.276       .  A
C10          O16   1.282       .  A
C10         C459   1.481       .  S
O11          C18   1.275       .  A
H12          C25   1.073       .  S
C13          O27   1.241       .  S
C13          O28   1.271       .  A
C13          H38   1.078       .  S
O14          C37   1.273       .  A
O15         Mg29   2.099       .  S
O16         Mg46   2.392       .  S
C17          O30   1.271       .  A
C17          O22   1.281       .  A
C17         C297   1.473       .  S
C18          O45   1.274       .  A
C18         C624   1.463       .  S
Mg19         O26   2.109       .  S
Mg19         O27   2.114       .  S
Mg19         O20   2.419       .  S
Mg19         O21   2.296       .  S
Mg19         O48   2.213       .  S
O21          C25   1.272       .  A
O22         Mg29   2.384       .  S
O23          C42   1.275       .  A
O24          C44   1.282       .  A
O24         Mg40   2.387       .  S
O26         Mg40   2.100       .  S
O26          C37   1.242       .  S
O27         Mg46   2.084       .  S
O28         Mg40   2.271       .  S
Mg29         O45   2.207       .  S
O30         Mg46   2.180       .  S
H31          C36   1.073       .  S
O32         Mg40   2.010       .  S
O32          C35   1.233       .  S
H33          C35   1.072       .  S
H34          C37   1.078       .  S
O39         Mg46   2.312       .  S
C42          O47   1.278       .  A
C42        C1254   1.467       .  S
O43          C44   1.271       .  A
C44        C1288   1.476       .  S
O49         Mg51   2.114       .  S
O49         Mg57   2.099       .  S
O49          C84   1.243       .  S
C50          O63   1.234       .  S
C50          O87   1.265       .  A
C50          H89   1.072       .  S
Mg51         O80   2.108       .  S
Mg51         O95   2.410       .  S
Mg51         O91   2.215       .  S
Mg51         O62   2.298       .  S
O52         Mg94   2.114       .  S
O52         Mg77   2.076       .  S
O52          C73   1.240       .  S
O53          C84   1.275       .  A
O53         Mg77   2.298       .  S
C54          O56   1.272       .  A
C54          O68   1.281       .  A
C54         C304   1.475       .  S
O55          C83   1.272       .  A
O55         Mg57   2.279       .  S
O56         Mg88   2.182       .  S
Mg57         O63   2.021       .  S
Mg57         O71   2.098       .  S
Mg57         O59   2.398       .  S
C58          O96   1.274       .  A
C58          O64   1.275       .  A
C58         C486   1.465       .  S
O59          C66   1.285       .  A
H60          C73   1.075       .  S
C61          O75   1.238       .  S
C61          O76   1.275       .  A
C61          H86   1.073       .  S
O62          C85   1.272       .  A
O63         Mg77   2.068       .  S
O64         Mg94   2.335       .  S
C65          O78   1.276       .  A
C65          O70   1.281       .  A
C65        C1086   1.477       .  S
C66          O93   1.272       .  A
C66        C1279   1.480       .  S
Mg67         O74   2.106       .  S
Mg67         O75   2.095       .  S
Mg67         O68   2.388       .  S
Mg67         O69   2.281       .  S
Mg67         O96   2.214       .  S
O69          C73   1.272       .  A
O70         Mg77   2.373       .  S
O71          C90   1.261       .  A
O72          C92   1.283       .  A
O72         Mg88   2.404       .  S
O74         Mg88   2.093       .  S
O74          C85   1.237       .  S
O75         Mg94   2.115       .  S
O76         Mg88   2.312       .  S
Mg77         O93   2.206       .  S
O78         Mg94   2.218       .  S
H79          C84   1.078       .  S
O80         Mg88   2.083       .  S
O80          C83   1.242       .  S
H81          C83   1.079       .  S
H82          C85   1.075       .  S
O87         Mg94   2.257       .  S
C90          O95   1.281       .  A
C90        C1236   1.474       .  S
O91          C92   1.276       .  A
C92        C1143   1.486       .  S
O97         Mg99   2.089       .  S
O97        Mg105   2.104       .  S
O97         C132   1.238       .  S
C98         O111   1.238       .  S
C98         O135   1.271       .  A
C98         H137   1.076       .  S
Mg99        O128   2.103       .  S
Mg99        O143   2.379       .  S
Mg99        O139   2.198       .  S
Mg99        O110   2.289       .  S
O100       Mg142   2.101       .  S
O100       Mg125   2.086       .  S
O100        C121   1.238       .  S
O101        C132   1.272       .  A
O101       Mg125   2.288       .  S
C102        O104   1.272       .  A
C102        O116   1.278       .  A
C102        C511   1.471       .  S
O103        C131   1.272       .  A
O103       Mg105   2.285       .  S
O104       Mg136   2.199       .  S
Mg105       O111   2.093       .  S
Mg105       O119   2.194       .  S
Mg105       O107   2.361       .  S
C106        O144   1.270       .  A
C106        O112   1.280       .  A
C106        C715   1.470       .  S
O107        C114   1.278       .  A
H108        C121   1.076       .  S
C109        O123   1.238       .  S
C109        O124   1.272       .  A
C109        H134   1.075       .  S
O110        C133   1.272       .  A
O111       Mg125   2.103       .  S
O112       Mg142   2.373       .  S
C113        O126   1.273       .  A
C113        O118   1.280       .  A
C113       C1003   1.473       .  S
C114        O141   1.271       .  A
C114        C883   1.468       .  S
Mg115       O122   2.090       .  S
Mg115       O123   2.103       .  S
Mg115       O116   2.364       .  S
Mg115       O117   2.286       .  S
Mg115       O144   2.189       .  S
O117        C121   1.272       .  A
O118       Mg125   2.372       .  S
O119        C138   1.271       .  A
O120        C140   1.281       .  A
O120       Mg136   2.374       .  S
O122       Mg136   2.100       .  S
O122        C133   1.239       .  S
O123       Mg142   2.091       .  S
O124       Mg136   2.289       .  S
Mg125       O141   2.189       .  S
O126       Mg142   2.200       .  S
H127        C132   1.076       .  S
O128       Mg136   2.088       .  S
O128        C131   1.238       .  S
H129        C131   1.076       .  S
H130        C133   1.077       .  S
O135       Mg142   2.289       .  S
C138        O143   1.281       .  A
C138        C604   1.473       .  S
O139        C140   1.273       .  A
C140        C967   1.472       .  S
C145        C329   1.496       .  S
C145        C146   1.413       .  A
C145        C150   1.397       .  A
C146        H151   1.079       .  S
C146        C147   1.427       .  A
C147        C163   1.516       .  S
C147        C148   1.427       .  A
C148        H152   1.082       .  S
C148        C149   1.418       .  A
C149        C834   1.472       .  S
C149        C150   1.381       .  A
C150        H153   1.086       .  S
C154        C785   1.498       .  S
C154        C155   1.417       .  A
C154        C159   1.389       .  A
C155        H160   1.082       .  S
C155        C156   1.436       .  A
C156        C165   1.517       .  S
C156        C157   1.428       .  A
C157        H161   1.082       .  S
C157        C158   1.413       .  A
C158        C270   1.479       .  S
C158        C159   1.372       .  A
C159        H162   1.085       .  S
C163        C164   1.420       .  A
C163        C168   1.419       .  A
C164        H169   1.082       .  S
C164        C165   1.419       .  A
C165        C166   1.416       .  A
C166        H170   1.083       .  S
C166        C167   1.416       .  A
C167        C174   1.515       .  S
C167        C168   1.415       .  A
C168        H171   1.083       .  S
C172        C186   1.491       .  S
C172        C173   1.412       .  A
C172        C177   1.394       .  A
C173        H178   1.079       .  S
C173        C174   1.426       .  A
C174        C175   1.428       .  A
C175        H179   1.082       .  S
C175        C176   1.421       .  A
C176        C944   1.471       .  S
C176        C177   1.381       .  A
C177        H180   1.086       .  S
O181       Mg183   2.061       .  S
O181       Mg189   2.138       .  S
O181        C216   1.241       .  S
C182        O195   1.242   1_455  S
C182        O219   1.272       .  A
C182        H221   1.075   1_455  S
Mg183       O212   2.140   1_655  S
Mg183       O227   2.262       .  S
Mg183       O223   2.292       .  S
Mg183       O194   2.274       .  S
O184       Mg226   2.137   1_655  S
O184       Mg209   2.063       .  S
O184        C205   1.241       .  S
O185        C216   1.271       .  A
O185       Mg209   2.272       .  S
C186        O188   1.275       .  A
C186        O200   1.276       .  A
O187        C215   1.272   1_655  A
O187       Mg189   2.275       .  S
O188       Mg220   2.298       .  S
Mg189       O195   2.067       .  S
Mg189       O203   2.296       .  S
Mg189       O191   2.266       .  S
C190        O228   1.275       .  A
C190        O196   1.278       .  A
C190       C1048   1.492       .  S
O191        C198   1.277       .  A
H192        C205   1.072       .  S
C193        O207   1.242       .  S
C193        O208   1.272       .  A
C193        H218   1.075       .  S
O194        C217   1.271       .  A
O195       Mg209   2.141       .  S
O196       Mg226   2.273       .  S
C197        O210   1.275       .  A
C197        O202   1.276   1_455  A
C197        C887   1.492       .  S
C198        O225   1.275       .  A
C198        C306   1.489       .  S
Mg199       O206   2.064       .  S
Mg199       O207   2.142       .  S
Mg199       O200   2.261       .  S
Mg199       O201   2.271       .  S
Mg199       O228   2.293       .  S
O201        C205   1.271   1_455  A
O202       Mg209   2.259       .  S
O203        C222   1.275       .  A
O204        C224   1.278   1_455  A
O204       Mg220   2.271       .  S
O206       Mg220   2.137       .  S
O206        C217   1.241   1_455  S
O207       Mg226   2.067       .  S
O208       Mg220   2.277       .  S
Mg209       O225   2.290       .  S
O210       Mg226   2.302       .  S
H211        C216   1.073       .  S
O212       Mg220   2.066       .  S
O212        C215   1.242       .  S
H213        C215   1.074       .  S
H214        C217   1.073   1_455  S
O219       Mg226   2.278       .  S
C222        O227   1.276       .  A
C222        C724   1.490       .  S
O223        C224   1.275       .  A
C224       C1243   1.491       .  S
O229       Mg231   2.063       .  S
O229       Mg237   2.143       .  S
O229        C264   1.242   1_545  S
C230        O243   1.241       .  S
C230        O267   1.270   1_545  A
C230        H269   1.071       .  S
Mg231       O260   2.143       .  S
Mg231       O275   2.288       .  S
Mg231       O271   2.291       .  S
Mg231       O242   2.281       .  S
O232       Mg274   2.140       .  S
O232       Mg257   2.060       .  S
O232        C253   1.241       .  S
O233        C264   1.272       .  A
O233       Mg257   2.277       .  S
C234        O236   1.279       .  A
C234        O248   1.278   1_545  A
C234        C717   1.497       .  S
O235        C263   1.272       .  A
O235       Mg237   2.282       .  S
O236       Mg268   2.324       .  S
Mg237       O243   2.057       .  S
Mg237       O251   2.274       .  S
Mg237       O239   2.237       .  S
C238        O276   1.277       .  A
C238        O244   1.274       .  A
C238        C295   1.494       .  S
O239        C246   1.271   1_545  A
H240        C253   1.073       .  S
C241        O255   1.242   1_545  S
C241        O256   1.272       .  A
C241        H266   1.074   1_545  S
O242        C265   1.270   1_545  A
O243       Mg257   2.148   1_545  S
O244       Mg274   2.247       .  S
C245        O258   1.273       .  A
C245        O250   1.276       .  A
C245        C978   1.485       .  S
C246        O273   1.273       .  A
C246       C1041   1.490       .  S
Mg247       O254   2.075       .  S
Mg247       O255   2.138       .  S
Mg247       O248   2.266       .  S
Mg247       O249   2.268       .  S
Mg247       O276   2.318       .  S
O249        C253   1.270       .  A
O250       Mg257   2.254       .  S
O251        C270   1.269       .  A
O252        C272   1.282       .  A
O252       Mg268   2.289       .  S
O254       Mg268   2.141   1_565  S
O254        C265   1.239       .  S
O255       Mg274   2.061       .  S
O256       Mg268   2.273       .  S
Mg257       O273   2.305       .  S
O258       Mg274   2.281       .  S
H259        C264   1.076   1_545  S
O260       Mg268   2.092       .  S
O260        C263   1.241       .  S
H261        C263   1.075       .  S
H262        C265   1.074       .  S
O267       Mg274   2.266       .  S
C270        O275   1.282       .  A
O271        C272   1.275       .  A
C272       C1084   1.493       .  S
C277        C308   1.519       .  S
C277        C278   1.417       .  A
C277        C282   1.420       .  A
C278        H283   1.083       .  S
C278        C279   1.420       .  A
C279        C288   1.515       .  S
C279        C280   1.415       .  A
C280        H284   1.083       .  S
C280        C281   1.417       .  A
C281        C299   1.516       .  S
C281        C282   1.418       .  A
C282        H285   1.083       .  S
C286        C356   1.488       .  S
C286        C287   1.409       .  A
C286        C291   1.395       .  A
C287        H292   1.079       .  S
C287        C288   1.423       .  A
C288        C289   1.431       .  A
C289        H293   1.082       .  S
C289        C290   1.422       .  A
C290       C1313   1.476       .  S
C290        C291   1.379       .  A
C291        H294   1.086       .  S
C295        C296   1.396       .  A
C295        C300   1.411       .  A
C296        H301   1.086       .  S
C296        C297   1.381       .  A
C297        C298   1.421       .  A
C298        H302   1.082       .  S
C298        C299   1.429       .  A
C299        C300   1.426       .  A
C300        H303   1.078       .  S
C304        C305   1.380       .  A
C304        C309   1.424       .  A
C305        H310   1.086       .  S
C305        C306   1.393       .  A
C306        C307   1.411       .  A
C307        H311   1.079       .  S
C307        C308   1.425       .  A
C308        C309   1.431       .  A
C309        H312   1.082       .  S
O313       Mg315   2.056       .  S
O313       Mg321   2.136   1_556  S
O313        C348   1.241       .  S
C314        O327   1.242       .  S
C314        O351   1.272       .  A
C314        H353   1.075       .  S
Mg315       O344   2.146       .  S
Mg315       O359   2.274       .  S
Mg315       O355   2.303       .  S
Mg315       O326   2.283       .  S
O316       Mg358   2.141       .  S
O316       Mg341   2.073       .  S
O316        C337   1.239   1_554  S
O317        C348   1.270   1_554  A
O317       Mg341   2.265       .  S
C318        O320   1.269       .  A
C318        O332   1.285       .  A
C318        C894   1.478       .  S
O319        C347   1.270       .  A
O319       Mg321   2.267       .  S
O320       Mg352   2.267       .  S
Mg321       O327   2.068       .  S
Mg321       O335   2.306       .  S
Mg321       O323   2.260       .  S
C322        O360   1.278       .  A
C322        O328   1.283   1_556  A
C322       C1075   1.501       .  S
O323        C330   1.277       .  A
H324        C337   1.076   1_554  S
C325        O339   1.241       .  S
C325        O340   1.272   1_554  A
C325        H350   1.073       .  S
O326        C349   1.272       .  A
O327       Mg341   2.144       .  S
O328       Mg358   2.300       .  S
C329        O342   1.279       .  A
C329        O334   1.274       .  A
C330        O357   1.275       .  A
C330       C1252   1.492       .  S
Mg331       O338   2.072       .  S
Mg331       O339   2.142   1_556  S
Mg331       O332   2.303       .  S
Mg331       O333   2.280       .  S
Mg331       O360   2.309       .  S
O333        C337   1.269       .  A
O334       Mg341   2.246       .  S
O335        C354   1.277       .  A
O336        C356   1.269       .  A
O336       Mg352   2.227       .  S
O338       Mg352   2.145       .  S
O338        C349   1.242       .  S
O339       Mg358   2.092       .  S
O340       Mg352   2.278       .  S
Mg341       O357   2.305       .  S
O342       Mg358   2.329       .  S
H343        C348   1.071       .  S
O344       Mg352   2.063       .  S
O344        C347   1.240   1_556  S
H345        C347   1.071   1_556  S
H346        C349   1.075       .  S
O351       Mg358   2.276       .  S
C354        O359   1.278   1_554  A
C354        C969   1.495       .  S
O355        C356   1.273       .  A
O361       Mg363   2.065       .  S
O361       Mg369   2.138       .  S
O361        C396   1.241       .  S
C362        O375   1.241       .  S
C362        O399   1.271       .  A
C362        H401   1.071       .  S
Mg363       O392   2.148       .  S
Mg363       O407   2.269       .  S
Mg363       O403   2.314       .  S
Mg363       O374   2.276       .  S
O364       Mg406   2.137       .  S
O364       Mg389   2.066       .  S
O364        C385   1.241       .  S
O365        C396   1.271       .  A
O365       Mg389   2.267       .  S
C366        O368   1.275       .  A
C366        O380   1.280       .  A
C366       C1170   1.495       .  S
O367        C395   1.271       .  A
O367       Mg369   2.273       .  S
O368       Mg400   2.299       .  S
Mg369       O375   2.062       .  S
Mg369       O383   2.298       .  S
Mg369       O371   2.267       .  S
C370        O408   1.277       .  A
C370        O376   1.278       .  A
C370        C522   1.495       .  S
O371        C378   1.277       .  A
H372        C385   1.072       .  S
C373        O387   1.240       .  S
C373        O388   1.270       .  A
C373        H398   1.071       .  S
O374        C397   1.272       .  A
O375       Mg389   2.136       .  S
O376       Mg406   2.265       .  S
C377        O390   1.276       .  A
C377        O382   1.277       .  A
C377        C622   1.494       .  S
C378        O405   1.276       .  A
C378       C1012   1.494       .  S
Mg379       O386   2.069       .  S
Mg379       O387   2.137       .  S
Mg379       O380   2.284       .  S
Mg379       O381   2.273       .  S
Mg379       O408   2.309       .  S
O381        C385   1.271       .  A
O382       Mg389   2.264       .  S
O383        C402   1.275       .  A
O384        C404   1.274       .  A
O384       Mg400   2.243       .  S
O386       Mg400   2.142       .  S
O386        C397   1.242       .  S
O387       Mg406   2.067       .  S
O388       Mg400   2.268       .  S
Mg389       O405   2.304       .  S
O390       Mg406   2.306       .  S
H391        C396   1.069       .  S
O392       Mg400   2.065       .  S
O392        C395   1.241       .  S
H393        C395   1.073       .  S
H394        C397   1.074       .  S
O399       Mg406   2.269       .  S
C402        O407   1.278       .  A
C402        C484   1.493       .  S
O403        C404   1.274       .  A
C404        C595   1.494       .  S
O409       Mg411   2.051   1_556  S
O409       Mg417   2.079       .  S
O409        C444   1.239       .  S
C410        O423   1.237       .  S
C410        O447   1.271       .  A
C410        H449   1.058       .  S
Mg411       O440   2.068       .  S
Mg411       O455   2.313       .  S
Mg411       O451   2.113       .  S
Mg411       O422   2.258   1_544  S
O412       Mg454   2.063       .  S
O412       Mg437   2.140   1_565  S
O412        C433   1.239       .  S
O413        C444   1.272       .  A
O413       Mg437   2.283   1_655  S
C414        O416   1.274   1_455  A
C414        O428   1.285       .  A
C414       C1023   1.484       .  S
O415        C443   1.270   1_455  A
O415       Mg417   2.260   1_454  S
O416       Mg448   2.159       .  S
Mg417       O423   2.046   1_655  S
Mg417       O431   2.168       .  S
Mg417       O419   2.373       .  S
C418        O456   1.267   1_556  A
C418        O424   1.275       .  A
C418        C867   1.463       .  S
O419        C426   1.280       .  A
H420        C433   1.072   1_655  S
C421        O435   1.243       .  S
C421        O436   1.278       .  A
C421        H446   1.074       .  S
O422        C445   1.268   1_556  A
O423       Mg437   2.064       .  S
O424       Mg454   2.368       .  S
C425        O438   1.269   1_545  A
C425        O430   1.274       .  A
C425       C1057   1.503       .  S
C426        O453   1.280   1_655  A
C426        C706   1.483       .  S
Mg427       O434   2.033   1_455  S
Mg427       O435   2.088       .  S
Mg427       O428   2.420       .  S
Mg427       O429   2.309   1_454  S
Mg427       O456   2.111       .  S
O429        C433   1.274   1_655  A
O430       Mg437   2.414       .  S
O431        C450   1.270   1_556  A
O432        C452   1.287       .  A
O432       Mg448   2.460       .  S
O434       Mg448   2.057       .  S
O434        C445   1.239       .  S
O435       Mg454   2.134   1_554  S
O436       Mg448   2.326   1_455  S
Mg437       O453   2.230       .  S
O438       Mg454   2.209       .  S
H439        C444   1.072       .  S
O440       Mg448   2.045   1_545  S
O440        C443   1.241       .  S
H441        C443   1.073       .  S
H442        C445   1.075       .  S
O447       Mg454   2.290   1_545  S
C450        O455   1.272       .  A
C450       C1234   1.449       .  S
O451        C452   1.263   1_545  A
C452        C949   1.504       .  S
C457       C1134   1.490       .  S
C457        C458   1.392   1_545  A
C457        C462   1.410       .  A
C458        H463   1.086       .  S
C458        C459   1.377       .  A
C459        C460   1.426       .  A
C460        H464   1.082       .  S
C460        C461   1.436   1_565  A
C461        C470   1.525       .  S
C461        C462   1.427       .  A
C462        H465   1.077       .  S
C466        C488   1.519       .  S
C466        C467   1.417       .  A
C466        C471   1.420       .  A
C467        H472   1.083       .  S
C467        C468   1.416       .  A
C468        C477   1.517       .  S
C468        C469   1.422       .  A
C469        H473   1.083       .  S
C469        C470   1.418       .  A
C470        C471   1.422       .  A
C471        H474   1.082       .  S
C475        C570   1.485       .  S
C475        C476   1.412       .  A
C475        C480   1.392       .  A
C476        H481   1.081       .  S
C476        C477   1.423       .  A
C477        C478   1.430       .  A
C478        H482   1.082       .  S
C478        C479   1.423       .  A
C479       C1220   1.473       .  S
C479        C480   1.378       .  A
C480        H483   1.086       .  S
C484        C485   1.389       .  A
C484        C489   1.415       .  A
C485        H490   1.087       .  S
C485        C486   1.376       .  A
C486        C487   1.417       .  A
C487        H491   1.082       .  S
C487        C488   1.427       .  A
C488        C489   1.430       .  A
C489        H492   1.078       .  S
C493        C786   1.495       .  S
C493        C494   1.389       .  A
C493        C498   1.417       .  A
C494        H499   1.085       .  S
C494        C495   1.370   1_545  A
C495       C1102   1.478       .  S
C495        C496   1.413       .  A
C496        H500   1.082       .  S
C496        C497   1.428       .  A
C497        C504   1.518       .  S
C497        C498   1.435   1_565  A
C498        H501   1.082       .  S
C502        C513   1.515       .  S
C502        C503   1.416       .  A
C502        C507   1.415       .  A
C503        H508   1.083       .  S
C503        C504   1.416       .  A
C504        C505   1.418       .  A
C505        H509   1.082       .  S
C505        C506   1.420       .  A
C506        C524   1.515       .  S
C506        C507   1.419       .  A
C507        H510   1.083       .  S
C511        C512   1.421       .  A
C511        C516   1.379       .  A
C512        H517   1.082       .  S
C512        C513   1.428       .  A
C513        C514   1.426       .  A
C514        H518   1.080       .  S
C514        C515   1.413       .  A
C515        C538   1.489       .  S
C515        C516   1.392       .  A
C516        H519   1.086       .  S
C520        C906   1.464       .  S
C520        C521   1.377       .  A
C520        C525   1.415       .  A
C521        H526   1.086       .  S
C521        C522   1.392       .  A
C522        C523   1.415       .  A
C523        H527   1.079       .  S
C523        C524   1.430       .  A
C524        C525   1.425       .  A
C525        H528   1.082       .  S
O529       Mg531   2.062       .  S
O529       Mg537   2.140       .  S
O529        C564   1.241   1_554  S
C530        O543   1.242   1_565  S
C530        O567   1.271   1_554  A
C530        H569   1.079   1_565  S
Mg531       O560   2.137   1_545  S
Mg531       O575   2.266       .  S
Mg531       O571   2.283       .  S
Mg531       O542   2.278       .  S
O532       Mg574   2.141   1_545  S
O532       Mg557   2.071       .  S
O532        C553   1.242       .  S
O533        C564   1.270       .  A
O533       Mg557   2.272       .  S
C534        O536   1.275       .  A
C534        O548   1.277   1_554  A
C534        C615   1.490       .  S
O535        C563   1.270   1_545  A
O535       Mg537   2.274       .  S
O536       Mg568   2.294       .  S
Mg537       O543   2.055       .  S
Mg537       O551   2.274       .  S
Mg537       O539   2.251       .  S
C538        O576   1.274       .  A
C538        O544   1.277       .  A
O539        C546   1.274   1_554  A
H540        C553   1.075       .  S
C541        O555   1.240   1_554  S
C541        O556   1.270       .  A
C541        H566   1.073   1_554  S
O542        C565   1.272   1_554  A
O543       Mg557   2.144   1_554  S
O544       Mg574   2.267       .  S
C545        O558   1.274       .  A
C545        O550   1.275   1_565  A
C545       C1281   1.484       .  S
C546        O573   1.275       .  A
C546        C579   1.490       .  S
Mg547       O554   2.063       .  S
Mg547       O555   2.136       .  S
Mg547       O548   2.266       .  S
Mg547       O549   2.277       .  S
Mg547       O576   2.289       .  S
O549        C553   1.271   1_565  A
O550       Mg557   2.254       .  S
O551        C570   1.272       .  A
O552        C572   1.275   1_565  A
O552       Mg568   2.254       .  S
O554       Mg568   2.142   1_556  S
O554        C565   1.242   1_565  S
O555       Mg574   2.059       .  S
O556       Mg568   2.269       .  S
Mg557       O573   2.303       .  S
O558       Mg574   2.281       .  S
H559        C564   1.074   1_554  S
O560       Mg568   2.069       .  S
O560        C563   1.241       .  S
H561        C563   1.073       .  S
H562        C565   1.076   1_565  S
O567       Mg574   2.280       .  S
C570        O575   1.277       .  A
O571        C572   1.274       .  A
C572        C760   1.484       .  S
C577        C833   1.476       .  S
C577        C578   1.379       .  A
C577        C582   1.424       .  A
C578        H583   1.086       .  S
C578        C579   1.392   1_554  A
C579        C580   1.410       .  A
C580        H584   1.076       .  S
C580        C581   1.425       .  A
C581        C588   1.520       .  S
C581        C582   1.431   1_556  A
C582        H585   1.082       .  S
C586        C597   1.518       .  S
C586        C587   1.416       .  A
C586        C591   1.419       .  A
C587        H592   1.083       .  S
C587        C588   1.418       .  A
C588        C589   1.418       .  A
C589        H593   1.083       .  S
C589        C590   1.421       .  A
C590        C606   1.518       .  S
C590        C591   1.417       .  A
C591        H594   1.083       .  S
C595        C596   1.414       .  A
C595        C600   1.385       .  A
C596        H601   1.078       .  S
C596        C597   1.431       .  A
C597        C598   1.432       .  A
C598        H602   1.082       .  S
C598        C599   1.416       .  A
C599        C778   1.480       .  S
C599        C600   1.376       .  A
C600        H603   1.085       .  S
C604        C605   1.421       .  A
C604        C609   1.379       .  A
C605        H610   1.082       .  S
C605        C606   1.429       .  A
C606        C607   1.426       .  A
C607        H611   1.081       .  S
C607        C608   1.415       .  A
C608        C666   1.491       .  S
C608        C609   1.394       .  A
C609        H612   1.086       .  S
C613       C1306   1.474       .  S
C613        C614   1.379       .  A
C613        C618   1.425       .  A
C614        H619   1.086       .  S
C614        C615   1.391   1_556  A
C615        C616   1.411       .  A
C616        H620   1.076       .  S
C616        C617   1.426       .  A
C617        C631   1.525       .  S
C617        C618   1.432   1_554  A
C618        H621   1.082       .  S
C622        C623   1.390       .  A
C622        C627   1.415       .  A
C623        H628   1.086       .  S
C623        C624   1.377       .  A
C624        C625   1.415       .  A
C625        H629   1.082       .  S
C625        C626   1.425       .  A
C626        C633   1.517       .  S
C626        C627   1.430       .  A
C627        H630   1.078       .  S
C631        C632   1.421       .  A
C631        C636   1.419       .  A
C632        H637   1.082       .  S
C632        C633   1.420       .  A
C633        C634   1.415       .  A
C634        H638   1.083       .  S
C634        C635   1.414       .  A
C635        C642   1.515       .  S
C635        C636   1.422       .  A
C636        H639   1.083       .  S
C640       C1194   1.474       .  S
C640        C641   1.422       .  A
C640        C645   1.378       .  A
C641        H646   1.082       .  S
C641        C642   1.431       .  A
C642        C643   1.423       .  A
C643        H647   1.081       .  S
C643        C644   1.411       .  A
C644        C654   1.486       .  S
C644        C645   1.394       .  A
C645        H648   1.086       .  S
O649       Mg651   2.069       .  S
O649       Mg657   2.140   1_554  S
O649        C684   1.241       .  S
C650        O663   1.239   1_455  S
C650        O687   1.270       .  A
C650        H689   1.070   1_455  S
Mg651       O680   2.144   1_655  S
Mg651       O695   2.245       .  S
Mg651       O691   2.303       .  S
Mg651       O662   2.262       .  S
O652       Mg694   2.144   1_655  S
O652       Mg677   2.064       .  S
O652        C673   1.241   1_556  S
O653        C684   1.271   1_556  A
O653       Mg677   2.274       .  S
C654        O656   1.273       .  A
C654        O668   1.275       .  A
O655        C683   1.271   1_655  A
O655       Mg657   2.274       .  S
O656       Mg688   2.284       .  S
Mg657       O663   2.071       .  S
Mg657       O671   2.303       .  S
Mg657       O659   2.269       .  S
C658        O696   1.272       .  A
C658        O664   1.274   1_554  A
C658        C746   1.483       .  S
O659        C666   1.278       .  A
H660        C673   1.077       .  S
C661        O675   1.241       .  S
C661        O676   1.271   1_556  A
C661        H686   1.073       .  S
O662        C685   1.269       .  A
O663       Mg677   2.136       .  S
O664       Mg694   2.242       .  S
C665        O678   1.275       .  A
C665        O670   1.278   1_455  A
C665       C1141   1.492       .  S
C666        O693   1.275       .  A
Mg667       O674   2.055       .  S
Mg667       O675   2.146   1_554  S
Mg667       O668   2.253       .  S
Mg667       O669   2.280       .  S
Mg667       O696   2.285       .  S
O669        C673   1.272   1_455  A
O670       Mg677   2.270       .  S
O671        C690   1.276       .  A
O672        C692   1.274   1_455  A
O672       Mg688   2.246       .  S
O674       Mg688   2.137       .  S
O674        C685   1.239   1_455  S
O675       Mg694   2.066       .  S
O676       Mg688   2.273       .  S
Mg677       O693   2.295       .  S
O678       Mg694   2.301       .  S
H679        C684   1.073       .  S
O680       Mg688   2.054       .  S
O680        C683   1.241   1_554  S
H681        C683   1.076   1_554  S
H682        C685   1.069   1_455  S
O687       Mg694   2.268       .  S
C690        O695   1.274   1_556  A
C690       C1290   1.489       .  S
O691        C692   1.275       .  A
C692        C996   1.489       .  S
C697        C708   1.521       .  S
C697        C698   1.416       .  A
C697        C702   1.422       .  A
C698        H703   1.083       .  S
C698        C699   1.414       .  A
C699        C728   1.519       .  S
C699        C700   1.416       .  A
C700        H704   1.083       .  S
C700        C701   1.422       .  A
C701        C719   1.523       .  S
C701        C702   1.427       .  A
C702        H705   1.082       .  S
C706        C707   1.428       .  A
C706        C711   1.372   1_655  A
C707        H712   1.082       .  S
C707        C708   1.432       .  A
C708        C709   1.430   1_655  A
C709        H713   1.082       .  S
C709        C710   1.413       .  A
C710        C810   1.490       .  S
C710        C711   1.396       .  A
C711        H714   1.087       .  S
C715        C716   1.380       .  A
C715        C720   1.421       .  A
C716        H721   1.086       .  S
C716        C717   1.393   1_565  A
C717        C718   1.414       .  A
C718        H722   1.078       .  S
C718        C719   1.431       .  A
C719        C720   1.428   1_545  A
C720        H723   1.082       .  S
C724        C725   1.391       .  A
C724        C729   1.412       .  A
C725        H730   1.086       .  S
C725        C726   1.377       .  A
C726        C860   1.471       .  S
C726        C727   1.422       .  A
C727        H731   1.082       .  S
C727        C728   1.429       .  A
C728        C729   1.428       .  A
C729        H732   1.078       .  S
C733       C1110   1.486       .  S
C733        C734   1.410       .  A
C733        C738   1.395   1_455  A
C734        H739   1.080       .  S
C734        C735   1.423       .  A
C735        C751   1.519       .  S
C735        C736   1.431   1_455  A
C736        H740   1.082       .  S
C736        C737   1.423       .  A
C737        C822   1.474       .  S
C737        C738   1.378       .  A
C738        H741   1.086       .  S
C742        C812   1.474       .  S
C742        C743   1.416   1_556  A
C742        C747   1.375       .  A
C743        H748   1.080   1_554  S
C743        C744   1.429       .  A
C744        C753   1.519       .  S
C744        C745   1.427       .  A
C745        H749   1.079       .  S
C745        C746   1.411       .  A
C746        C747   1.385   1_554  A
C747        H750   1.086       .  S
C751        C752   1.417       .  A
C751        C756   1.421       .  A
C752        H757   1.082       .  S
C752        C753   1.420       .  A
C753        C754   1.417       .  A
C754        H758   1.082       .  S
C754        C755   1.419       .  A
C755        C762   1.521       .  S
C755        C756   1.417       .  A
C756        H759   1.082       .  S
C760        C761   1.409       .  A
C760        C765   1.392   1_545  A
C761        H766   1.079       .  S
C761        C762   1.423       .  A
C762        C763   1.431   1_545  A
C763        H767   1.082       .  S
C763        C764   1.426       .  A
C764        C917   1.474       .  S
C764        C765   1.378       .  A
C765        H768   1.086       .  S
O769       Mg771   2.062       .  S
O769       Mg777   2.165       .  S
O769        C804   1.241       .  S
C770        O783   1.238       .  S
C770        O807   1.267       .  A
C770        H809   1.081       .  S
Mg771       O800   2.150       .  S
Mg771       O815   2.227       .  S
Mg771       O811   2.283       .  S
Mg771       O782   2.279       .  S
O772       Mg814   2.169       .  S
O772       Mg797   2.074       .  S
O772        C793   1.239       .  S
O773        C804   1.271       .  A
O773       Mg797   2.274       .  S
C774        O776   1.270       .  A
C774        O788   1.268       .  A
C774        C892   1.488       .  S
O775        C803   1.270       .  A
O775       Mg777   2.277       .  S
O776       Mg808   2.316       .  S
Mg777       O783   2.055       .  S
Mg777       O791   2.318       .  S
Mg777       O779   2.220       .  S
C778        O816   1.272       .  A
C778        O784   1.282       .  A
O779        C786   1.272       .  A
H780        C793   1.079       .  S
C781        O795   1.241       .  S
C781        O796   1.271       .  A
C781        H806   1.081       .  S
O782        C805   1.270       .  A
O783       Mg797   2.166       .  S
O784       Mg814   2.276       .  S
C785        O798   1.276       .  A
C785        O790   1.273       .  A
C786        O813   1.274       .  A
Mg787       O794   2.078       .  S
Mg787       O795   2.162       .  S
Mg787       O788   2.205       .  S
Mg787       O789   2.276       .  S
Mg787       O816   2.294       .  S
O789        C793   1.270       .  A
O790       Mg797   2.226       .  S
O791        C810   1.273       .  A
O792        C812   1.280       .  A
O792       Mg808   2.278       .  S
O794       Mg808   2.173       .  S
O794        C805   1.240       .  S
O795       Mg814   2.079       .  S
O796       Mg808   2.289       .  S
Mg797       O813   2.334       .  S
O798       Mg814   2.342       .  S
H799        C804   1.079       .  S
O800       Mg808   2.057       .  S
O800        C803   1.241       .  S
H801        C803   1.080       .  S
H802        C805   1.079       .  S
O807       Mg814   2.275       .  S
C810        O815   1.272       .  A
O811        C812   1.272       .  A
O817       Mg819   2.094       .  S
O817       Mg825   2.099       .  S
O817        C852   1.237       .  S
C818        O831   1.239       .  S
C818        O855   1.272       .  A
C818        H857   1.075       .  S
Mg819       O848   2.107       .  S
Mg819       O863   2.363       .  S
Mg819       O859   2.206       .  S
Mg819       O830   2.276       .  S
O820       Mg862   2.101       .  S
O820       Mg845   2.091       .  S
O820        C841   1.239       .  S
O821        C852   1.272       .  A
O821       Mg845   2.294       .  S
C822        O824   1.271       .  A
C822        O836   1.283       .  A
O823        C851   1.272       .  A
O823       Mg825   2.288       .  S
O824       Mg856   2.194       .  S
Mg825       O831   2.095       .  S
Mg825       O839   2.199       .  S
Mg825       O827   2.384       .  S
C826        O864   1.273       .  A
C826        O832   1.281       .  A
C826        C951   1.472       .  S
O827        C834   1.281       .  A
H828        C841   1.078       .  S
C829        O843   1.242       .  S
C829        O844   1.273       .  A
C829        H854   1.080       .  S
O830        C853   1.270       .  A
O831       Mg845   2.102       .  S
O832       Mg862   2.371       .  S
C833        O846   1.272       .  A
C833        O838   1.278       .  A
C834        O861   1.269       .  A
Mg835       O842   2.077       .  S
Mg835       O843   2.108       .  S
Mg835       O836   2.386       .  S
Mg835       O837   2.290       .  S
Mg835       O864   2.203       .  S
O837        C841   1.271       .  A
O838       Mg845   2.373       .  S
O839        C858   1.273       .  A
O840        C860   1.278       .  A
O840       Mg856   2.359       .  S
O842       Mg856   2.098       .  S
O842        C853   1.237       .  S
O843       Mg862   2.090       .  S
O844       Mg856   2.288       .  S
Mg845       O861   2.179       .  S
O846       Mg862   2.201       .  S
H847        C852   1.075       .  S
O848       Mg856   2.092       .  S
O848        C851   1.238       .  S
H849        C851   1.076       .  S
H850        C853   1.073       .  S
O855       Mg862   2.289       .  S
C858        O863   1.279       .  A
C858       C1014   1.468       .  S
O859        C860   1.273       .  A
C865        C918   1.473       .  S
C865        C866   1.373       .  A
C865        C870   1.413       .  A
C866        H871   1.093       .  S
C866        C867   1.367   1_554  A
C867        C868   1.407       .  A
C868        H872   1.082       .  S
C868        C869   1.431       .  A
C869        C876   1.513       .  S
C869        C870   1.437   1_556  A
C870        H873   1.082       .  S
C874        C896   1.511       .  S
C874        C875   1.412       .  A
C874        C879   1.416       .  A
C875        H880   1.082       .  S
C875        C876   1.416       .  A
C876        C877   1.420       .  A
C877        H881   1.082       .  S
C877        C878   1.415       .  A
C878        C885   1.516       .  S
C878        C879   1.417       .  A
C879        H882   1.083       .  S
C883        C884   1.418       .  A
C883        C888   1.379       .  A
C884        H889   1.082       .  S
C884        C885   1.427   1_655  A
C885        C886   1.427       .  A
C886        H890   1.079       .  S
C886        C887   1.414       .  A
C887        C888   1.393   1_455  A
C888        H891   1.086       .  S
C892        C893   1.389       .  A
C892        C897   1.412       .  A
C893        H898   1.085       .  S
C893        C894   1.370       .  A
C894        C895   1.415       .  A
C895        H899   1.082       .  S
C895        C896   1.429       .  A
C896        C897   1.430       .  A
C897        H900   1.082       .  S
O901       Mg903   2.081       .  S
O901       Mg909   2.108       .  S
O901        C936   1.240       .  S
C902        O915   1.243       .  S
C902        O939   1.274       .  A
C902        H941   1.079       .  S
Mg903       O932   2.093       .  S
Mg903       O947   2.386       .  S
Mg903       O943   2.179       .  S
Mg903       O914   2.306       .  S
O904       Mg946   2.070       .  S
O904       Mg929   2.025       .  S
O904        C925   1.234       .  S
O905        C936   1.271       .  A
O905       Mg929   2.276       .  S
C906        O908   1.272       .  A
C906        O920   1.276       .  A
O907        C935   1.272       .  A
O907       Mg909   2.298       .  S
O908       Mg940   2.201       .  S
Mg909       O915   2.107       .  S
Mg909       O923   2.209       .  S
Mg909       O911   2.408       .  S
C910        O948   1.275       .  A
C910        O916   1.279       .  A
C910        C976   1.471       .  S
O911        C918   1.282       .  A
H912        C925   1.073       .  S
C913        O927   1.238       .  S
C913        O928   1.271       .  A
C913        H938   1.074       .  S
O914        C937   1.274       .  A
O915       Mg929   2.103       .  S
O916       Mg946   2.359       .  S
C917        O930   1.271       .  A
C917        O922   1.282       .  A
C918        O945   1.262       .  A
Mg919       O926   2.108       .  S
Mg919       O927   2.114       .  S
Mg919       O920   2.340       .  S
Mg919       O921   2.259       .  S
Mg919       O948   2.214       .  S
O921        C925   1.266       .  A
O922       Mg929   2.382       .  S
O923        C942   1.275       .  A
O924        C944   1.280       .  A
O924       Mg940   2.377       .  S
O926       Mg940   2.098       .  S
O926        C937   1.237       .  S
O927       Mg946   2.073       .  S
O928       Mg940   2.278       .  S
Mg929       O945   2.103       .  S
O930       Mg946   2.195       .  S
H931        C936   1.078       .  S
O932       Mg940   2.102       .  S
O932        C935   1.237       .  S
H933        C935   1.076       .  S
H934        C937   1.074       .  S
O939       Mg946   2.296       .  S
C942        O947   1.281       .  A
C942        C994   1.479       .  S
O943        C944   1.271       .  A
C949        C950   1.397   1_565  A
C949        C954   1.427       .  A
C950        H955   1.087       .  S
C950        C951   1.366       .  A
C951        C952   1.414       .  A
C952        H956   1.081       .  S
C952        C953   1.433   1_545  A
C953        C958   1.531       .  S
C953        C954   1.441       .  A
C954        H957   1.081       .  S
C958        C959   1.426       .  A
C958        C963   1.419       .  A
C959        H964   1.082       .  S
C959        C960   1.428       .  A
C960        C971   1.527       .  S
C960        C961   1.421       .  A
C961        H965   1.082       .  S
C961        C962   1.416       .  A
C962        C980   1.522       .  S
C962        C963   1.418       .  A
C963        H966   1.082       .  S
C967        C968   1.380       .  A
C967        C972   1.425       .  A
C968        H973   1.087       .  S
C968        C969   1.390   1_556  A
C969        C970   1.413       .  A
C970        H974   1.077       .  S
C970        C971   1.431       .  A
C971        C972   1.430   1_554  A
C972        H975   1.082       .  S
C976        C977   1.376       .  A
C976        C981   1.425       .  A
C977        H982   1.087       .  S
C977        C978   1.390       .  A
C978        C979   1.409       .  A
C979        H983   1.078       .  S
C979        C980   1.426       .  A
C980        C981   1.431       .  A
C981        H984   1.082       .  S
C985        C998   1.524       .  S
C985        C986   1.422       .  A
C985        C990   1.418       .  A
C986        H991   1.082       .  S
C986        C987   1.419       .  A
C987       C1016   1.520       .  S
C987        C988   1.417       .  A
C988        H992   1.083       .  S
C988        C989   1.416       .  A
C989       C1005   1.516       .  S
C989        C990   1.421       .  A
C990        H993   1.083       .  S
C994        C995   1.378       .  A
C994        C999   1.426       .  A
C995       H1000   1.086       .  S
C995        C996   1.391   1_455  A
C996        C997   1.409       .  A
C997       H1001   1.075       .  S
C997        C998   1.425       .  A
C998        C999   1.435   1_655  A
C999       H1002   1.082       .  S
C1003      C1004   1.421       .  A
C1003      C1008   1.378       .  A
C1004      H1009   1.082       .  S
C1004      C1005   1.430       .  A
C1005      C1006   1.425       .  A
C1006      H1010   1.081       .  S
C1006      C1007   1.412       .  A
C1007      C1136   1.487       .  S
C1007      C1008   1.393       .  A
C1008      H1011   1.086       .  S
C1012      C1013   1.391       .  A
C1012      C1017   1.414       .  A
C1013      H1018   1.086       .  S
C1013      C1014   1.379       .  A
C1014      C1015   1.419       .  A
C1015      H1019   1.082       .  S
C1015      C1016   1.428       .  A
C1016      C1017   1.429       .  A
C1017      H1020   1.078       .  S
C1021      C1022   1.382       .  A
C1021      C1026   1.411       .  A
C1022      H1027   1.093       .  S
C1022      C1023   1.362   1_655  A
C1023      C1024   1.426       .  A
C1024      H1028   1.082       .  S
C1024      C1025   1.443       .  A
C1025      C1032   1.528       .  S
C1025      C1026   1.434   1_455  A
C1026      H1029   1.083       .  S
C1030      C1050   1.528       .  S
C1030      C1031   1.421       .  A
C1030      C1035   1.416       .  A
C1031      H1036   1.083       .  S
C1031      C1032   1.425       .  A
C1032      C1033   1.419       .  A
C1033      H1037   1.082       .  S
C1033      C1034   1.421       .  A
C1034      C1043   1.518       .  S
C1034      C1035   1.421       .  A
C1035      H1038   1.082       .  S
C1039      C1182   1.473       .  S
C1039      C1040   1.378       .  A
C1039      C1044   1.422       .  A
C1040      H1045   1.087       .  S
C1040      C1041   1.393   1_545  A
C1041      C1042   1.409       .  A
C1042      H1046   1.077       .  S
C1042      C1043   1.426       .  A
C1043      C1044   1.430   1_565  A
C1044      H1047   1.082       .  S
C1048      C1049   1.415       .  A
C1048      C1053   1.391       .  A
C1049      H1054   1.079       .  S
C1049      C1050   1.428       .  A
C1050      C1051   1.434       .  A
C1051      H1055   1.082       .  S
C1051      C1052   1.425       .  A
C1052      C1338   1.477       .  S
C1052      C1053   1.377       .  A
C1053      H1056   1.086       .  S
C1057      C1058   1.423       .  A
C1057      C1062   1.395   1_545  A
C1058      H1063   1.082       .  S
C1058      C1059   1.434       .  A
C1059      C1068   1.528       .  S
C1059      C1060   1.434   1_545  A
C1060      H1064   1.082       .  S
C1060      C1061   1.425       .  A
C1061      C1302   1.485       .  S
C1061      C1062   1.379       .  A
C1062      H1065   1.086       .  S
C1066      C1077   1.530       .  S
C1066      C1067   1.424       .  A
C1066      C1071   1.424       .  A
C1067      H1072   1.083       .  S
C1067      C1068   1.425       .  A
C1068      C1069   1.419       .  A
C1069      H1073   1.083       .  S
C1069      C1070   1.421       .  A
C1070      C1088   1.525       .  S
C1070      C1071   1.421       .  A
C1071      H1074   1.083       .  S
C1075      C1076   1.422       .  A
C1075      C1080   1.395   1_556  A
C1076      H1081   1.082       .  S
C1076      C1077   1.432       .  A
C1077      C1078   1.432   1_556  A
C1078      H1082   1.082       .  S
C1078      C1079   1.425       .  A
C1079      C1218   1.481       .  S
C1079      C1080   1.380       .  A
C1080      H1083   1.086       .  S
C1084      C1085   1.394       .  A
C1084      C1089   1.420       .  A
C1085      H1090   1.086       .  S
C1085      C1086   1.376       .  A
C1086      C1087   1.425       .  A
C1087      H1091   1.083       .  S
C1087      C1088   1.431       .  A
C1088      C1089   1.430       .  A
C1089      H1092   1.082       .  S
O1093     Mg1095   2.058       .  S
O1093     Mg1101   2.148   1_565  S
O1093      C1128   1.243   1_655  S
C1094      O1107   1.239       .  S
C1094      O1131   1.269   1_655  A
C1094      H1133   1.074       .  S
Mg1095     O1124   2.139       .  S
Mg1095     O1139   2.243       .  S
Mg1095     O1135   2.288       .  S
Mg1095     O1106   2.267       .  S
O1096     Mg1138   2.141       .  S
O1096     Mg1121   2.080       .  S
O1096      C1117   1.240   1_545  S
O1097      C1128   1.272   1_545  A
O1097     Mg1121   2.280       .  S
C1098      O1100   1.272       .  A
C1098      O1112   1.270   1_655  A
C1098      C1272   1.485       .  S
O1099      C1127   1.269       .  A
O1099     Mg1101   2.261       .  S
O1100     Mg1132   2.293       .  S
Mg1101     O1107   2.077       .  S
Mg1101     O1115   2.312       .  S
Mg1101     O1103   2.239       .  S
C1102      O1140   1.269       .  A
C1102      O1108   1.284   1_565  A
O1103      C1110   1.274   1_655  A
H1104      C1117   1.075       .  S
C1105      O1119   1.243   1_655  S
C1105      O1120   1.272   1_545  A
C1105      H1130   1.077   1_655  S
O1106      C1129   1.270   1_655  A
O1107     Mg1121   2.141   1_655  S
O1108     Mg1138   2.296       .  S
C1109      O1122   1.277       .  A
C1109      O1114   1.281       .  A
C1109      C1159   1.497       .  S
C1110      O1137   1.276       .  A
Mg1111     O1118   2.062       .  S
Mg1111     O1119   2.146   1_565  S
Mg1111     O1112   2.225       .  S
Mg1111     O1113   2.277       .  S
Mg1111     O1140   2.270       .  S
O1113      C1117   1.271       .  A
O1114     Mg1121   2.287       .  S
O1115      C1134   1.276       .  A
O1116      C1136   1.276       .  A
O1116     Mg1132   2.258       .  S
O1118     Mg1132   2.147   1_455  S
O1118      C1129   1.240       .  S
O1119     Mg1138   2.067       .  S
O1120     Mg1132   2.281       .  S
Mg1121     O1137   2.302       .  S
O1122     Mg1138   2.306       .  S
H1123      C1128   1.079       .  S
O1124     Mg1132   2.050       .  S
O1124      C1127   1.240   1_565  S
H1125      C1127   1.072   1_565  S
H1126      C1129   1.071       .  S
O1131     Mg1138   2.279       .  S
C1134      O1139   1.274   1_545  A
O1135      C1136   1.274       .  A
C1141      C1142   1.394   1_455  A
C1141      C1146   1.416       .  A
C1142      H1147   1.086       .  S
C1142      C1143   1.378       .  A
C1143      C1144   1.427       .  A
C1144      H1148   1.082       .  S
C1144      C1145   1.435   1_655  A
C1145      C1152   1.525       .  S
C1145      C1146   1.427       .  A
C1146      H1149   1.083       .  S
C1150      C1172   1.525       .  S
C1150      C1151   1.419       .  A
C1150      C1155   1.422       .  A
C1151      H1156   1.083       .  S
C1151      C1152   1.423       .  A
C1152      C1153   1.420       .  A
C1153      H1157   1.083       .  S
C1153      C1154   1.423       .  A
C1154      C1161   1.524       .  S
C1154      C1155   1.420       .  A
C1155      H1158   1.083       .  S
C1159      C1160   1.420       .  A
C1159      C1164   1.396       .  A
C1160      H1165   1.083       .  S
C1160      C1161   1.429       .  A
C1161      C1162   1.431       .  A
C1162      H1166   1.082       .  S
C1162      C1163   1.422       .  A
C1163      C1186   1.479       .  S
C1163      C1164   1.380       .  A
C1164      H1167   1.086       .  S
C1168      C1314   1.480       .  S
C1168      C1169   1.379       .  A
C1168      C1173   1.424       .  A
C1169      H1174   1.086       .  S
C1169      C1170   1.395       .  A
C1170      C1171   1.420       .  A
C1171      H1175   1.083       .  S
C1171      C1172   1.429       .  A
C1172      C1173   1.432       .  A
C1173      H1176   1.082       .  S
O1177     Mg1179   2.093       .  S
O1177     Mg1185   2.104       .  S
O1177      C1212   1.240       .  S
C1178      O1191   1.238       .  S
C1178      O1215   1.272       .  A
C1178      H1217   1.074       .  S
Mg1179     O1208   2.103       .  S
Mg1179     O1223   2.399       .  S
Mg1179     O1219   2.204       .  S
Mg1179     O1190   2.297       .  S
O1180     Mg1222   2.106       .  S
O1180     Mg1205   2.097       .  S
O1180      C1201   1.238       .  S
O1181      C1212   1.273       .  A
O1181     Mg1205   2.290       .  S
C1182      O1184   1.272       .  A
C1182      O1196   1.279       .  A
O1183      C1211   1.271       .  A
O1183     Mg1185   2.288       .  S
O1184     Mg1216   2.202       .  S
Mg1185     O1191   2.094       .  S
Mg1185     O1199   2.202       .  S
Mg1185     O1187   2.374       .  S
C1186      O1224   1.272       .  A
C1186      O1192   1.283       .  A
O1187      C1194   1.280       .  A
H1188      C1201   1.076       .  S
C1189      O1203   1.240       .  S
C1189      O1204   1.272       .  A
C1189      H1214   1.077       .  S
O1190      C1213   1.273       .  A
O1191     Mg1205   2.099       .  S
O1192     Mg1222   2.394       .  S
C1193      O1206   1.273       .  A
C1193      O1198   1.280       .  A
C1193      C1245   1.473       .  S
C1194      O1221   1.272       .  A
Mg1195     O1202   2.098       .  S
Mg1195     O1203   2.103       .  S
Mg1195     O1196   2.369       .  S
Mg1195     O1197   2.285       .  S
Mg1195     O1224   2.201       .  S
O1197      C1201   1.271       .  A
O1198     Mg1205   2.371       .  S
O1199      C1218   1.273       .  A
O1200      C1220   1.279       .  A
O1200     Mg1216   2.368       .  S
O1202     Mg1216   2.101       .  S
O1202      C1213   1.239       .  S
O1203     Mg1222   2.089       .  S
O1204     Mg1216   2.288       .  S
Mg1205     O1221   2.203       .  S
O1206     Mg1222   2.202       .  S
H1207      C1212   1.076       .  S
O1208     Mg1216   2.097       .  S
O1208      C1211   1.238       .  S
H1209      C1211   1.076       .  S
H1210      C1213   1.076       .  S
O1215     Mg1222   2.290       .  S
C1218      O1223   1.283       .  A
O1219      C1220   1.274       .  A
C1225      C1256   1.519       .  S
C1225      C1226   1.414       .  A
C1225      C1230   1.421       .  A
C1226      H1231   1.083       .  S
C1226      C1227   1.414       .  A
C1227      C1238   1.518       .  S
C1227      C1228   1.420       .  A
C1228      H1232   1.081       .  S
C1228      C1229   1.419       .  A
C1229      C1247   1.525       .  S
C1229      C1230   1.424       .  A
C1230      H1233   1.082       .  S
C1234      C1235   1.357   1_554  A
C1234      C1239   1.407       .  A
C1235      H1240   1.095       .  S
C1235      C1236   1.374       .  A
C1236      C1237   1.418       .  A
C1237      H1241   1.082       .  S
C1237      C1238   1.440   1_556  A
C1238      C1239   1.428       .  A
C1239      H1242   1.082       .  S
C1243      C1244   1.391   1_655  A
C1243      C1248   1.415       .  A
C1244      H1249   1.086       .  S
C1244      C1245   1.377       .  A
C1245      C1246   1.423       .  A
C1246      H1250   1.082       .  S
C1246      C1247   1.432   1_455  A
C1247      C1248   1.428       .  A
C1248      H1251   1.079       .  S
C1252      C1253   1.391       .  A
C1252      C1257   1.413       .  A
C1253      H1258   1.086       .  S
C1253      C1254   1.375       .  A
C1254      C1255   1.421       .  A
C1255      H1259   1.082       .  S
C1255      C1256   1.426       .  A
C1256      C1257   1.430       .  A
C1257      H1260   1.078       .  S
C1261      C1274   1.520       .  S
C1261      C1262   1.417       .  A
C1261      C1266   1.421       .  A
C1262      H1267   1.082       .  S
C1262      C1263   1.421       .  A
C1263      C1292   1.524       .  S
C1263      C1264   1.420       .  A
C1264      H1268   1.082       .  S
C1264      C1265   1.423       .  A
C1265      C1283   1.525       .  S
C1265      C1266   1.418       .  A
C1266      H1269   1.082       .  S
C1270      C1340   1.475       .  S
C1270      C1271   1.377       .  A
C1270      C1275   1.424       .  A
C1271      H1276   1.087       .  S
C1271      C1272   1.393   1_455  A
C1272      C1273   1.408       .  A
C1273      H1277   1.079       .  S
C1273      C1274   1.423       .  A
C1274      C1275   1.433   1_655  A
C1275      H1278   1.082       .  S
C1279      C1280   1.377       .  A
C1279      C1284   1.429       .  A
C1280      H1285   1.086       .  S
C1280      C1281   1.393   1_545  A
C1281      C1282   1.411       .  A
C1282      H1286   1.080       .  S
C1282      C1283   1.423       .  A
C1283      C1284   1.433   1_565  A
C1284      H1287   1.081       .  S
C1288      C1289   1.377       .  A
C1288      C1293   1.424       .  A
C1289      H1294   1.086       .  S
C1289      C1290   1.394   1_554  A
C1290      C1291   1.411       .  A
C1291      H1295   1.079       .  S
C1291      C1292   1.426       .  A
C1292      C1293   1.432   1_556  A
C1293      H1296   1.082       .  S
O1297     Mg1299   2.101       .  S
O1297     Mg1305   2.103       .  S
O1297      C1332   1.239       .  S
C1298      O1311   1.239       .  S
C1298      O1335   1.273       .  A
C1298      H1337   1.076       .  S
Mg1299     O1328   2.104       .  S
Mg1299     O1343   2.377       .  S
Mg1299     O1339   2.199       .  S
Mg1299     O1310   2.293       .  S
O1300     Mg1342   2.102       .  S
O1300     Mg1325   2.100       .  S
O1300      C1321   1.239       .  S
O1301      C1332   1.272       .  A
O1301     Mg1325   2.290       .  S
C1302      O1304   1.276       .  A
C1302      O1316   1.282       .  A
O1303      C1331   1.273       .  A
O1303     Mg1305   2.296       .  S
O1304     Mg1336   2.235       .  S
Mg1305     O1311   2.091       .  S
Mg1305     O1319   2.207       .  S
Mg1305     O1307   2.394       .  S
C1306      O1344   1.272       .  A
C1306      O1312   1.280       .  A
O1307      C1314   1.283       .  A
H1308      C1321   1.075       .  S
C1309      O1323   1.239       .  S
C1309      O1324   1.272       .  A
C1309      H1334   1.077       .  S
O1310      C1333   1.273       .  A
O1311     Mg1325   2.102       .  S
O1312     Mg1342   2.376       .  S
C1313      O1326   1.272       .  A
C1313      O1318   1.281       .  A
C1314      O1341   1.273       .  A
Mg1315     O1322   2.090       .  S
Mg1315     O1323   2.106       .  S
Mg1315     O1316   2.389       .  S
Mg1315     O1317   2.292       .  S
Mg1315     O1344   2.196       .  S
O1317      C1321   1.273       .  A
O1318     Mg1325   2.381       .  S
O1319      C1338   1.274       .  A
O1320      C1340   1.282       .  A
O1320     Mg1336   2.382       .  S
O1322     Mg1336   2.104       .  S
O1322      C1333   1.241       .  S
O1323     Mg1342   2.102       .  S
O1324     Mg1336   2.291       .  S
Mg1325     O1341   2.209       .  S
O1326     Mg1342   2.202       .  S
H1327      C1332   1.076       .  S
O1328     Mg1336   2.108       .  S
O1328      C1331   1.240       .  S
H1329      C1331   1.075       .  S
H1330      C1333   1.079       .  S
O1335     Mg1342   2.290       .  S
C1338      O1343   1.280       .  A
O1339      C1340   1.272       .  A
