geometry optimzed in LAMMPS
_audit_creation_date              2020-11-30 
_audit_creation_method            'lammps2cif' 
_symmetry_space_group_name_H-M    'P1' 
_symmetry_Int_Tables_number       1 
_symmetry_cell_setting            triclinic 
loop_ 
_symmetry_equiv_pos_as_xyz 
  x,y,z 
_cell_length_a                    41.91986482 
_cell_length_b                    42.444825120079535 
_cell_length_c                    42.31156493359477 
_cell_angle_alpha                 90.1834462107159 
_cell_angle_beta                  89.7449489875124 
_cell_angle_gamma                 90.10897360462404 
loop_ 
_atom_site_label 
_atom_site_type_symbol 
_atom_site_fract_x 
_atom_site_fract_y 
_atom_site_fract_z 
_atom_site_charge 
O1          O  0.51676580  0.48949612  0.40908384    -0.78000
C2          C  0.43182902  0.54483211  0.41859049     0.83100
O3          O  0.55565764  0.57708382  0.47886409    -0.79100
O4          O  0.45615132  0.56497665  0.52536796    -0.80600
O5          O  0.46135975  0.44520684  0.50022246    -0.80400
O6          O  0.51853519  0.44639260  0.43811438    -0.79000
Zn7        Zn  0.50291692  0.52809776  0.43360653     1.55700
O8          O  0.42873927  0.48650041  0.50259781    -0.80400
Cd9        Cd  0.50513720  0.46861399  0.48333299     1.59700
Cd10       Cd  0.53012480  0.54318052  0.50668680     1.59600
O11         O  0.54560241  0.46674950  0.51612909    -0.80400
O12         O  0.49791215  0.51672345  0.47833718    -1.90900
Cd13       Cd  0.45217377  0.52835088  0.48874761     1.59900
O14         O  0.56366063  0.51430190  0.53101135    -0.80300
O15         O  0.42404988  0.54284409  0.44795257    -0.79000
C16         C  0.55398036  0.58278564  0.44922825     0.83500
C17         C  0.52218074  0.46004022  0.41122166     0.83200
O18         O  0.46085350  0.54015981  0.41044638    -0.77900
C19         C  0.43354514  0.45686136  0.50613397     0.84000
O20         O  0.53639303  0.56523881  0.43141276    -0.78000
C21         C  0.56591645  0.48424557  0.53150997     0.84100
C22         C  0.47737357  0.57972900  0.54232118     0.84500
O23         O  0.50680170  0.57219597  0.54061109    -0.80500
O24         O  0.46522583  0.33042437  0.20898539    -0.78000
C25         C  0.53070288  0.32697508  0.29405964     0.83100
O26         O  0.56226278  0.25920491  0.17804553    -0.79100
O27         O  0.54829593  0.21667034  0.28078039    -0.80600
O28         O  0.43329882  0.24429901  0.27562380    -0.80400
O29         O  0.42770035  0.29417201  0.21616969    -0.79000
Zn30       Zn  0.50815106  0.30816431  0.22471077     1.55700
O31         O  0.47357175  0.24099414  0.30962184    -0.80400
Cd32       Cd  0.45489910  0.25499288  0.23150257     1.59700
Cd33       Cd  0.52916691  0.23291986  0.20587407     1.59600
O34         O  0.45268438  0.21634819  0.19847486    -0.80400
O35         O  0.50217007  0.26323691  0.23588345    -1.90900
Cd36       Cd  0.51424237  0.25556818  0.28210979     1.59900
O37         O  0.49960844  0.20183715  0.17841490    -0.80300
O38         O  0.53031799  0.29846706  0.30426102    -0.79000
C39         C  0.56606904  0.28909431  0.17638636     0.83500
C40         C  0.43564530  0.32213229  0.20820560     0.83200
O41         O  0.52246711  0.33303288  0.26546352    -0.77900
C42         C  0.44374623  0.23825255  0.30335259     0.84000
O43         O  0.54634172  0.30782076  0.19079057    -0.78000
C44         C  0.46936758  0.19791920  0.18043006     0.84100
C45         C  0.56155682  0.19721635  0.26090761     0.84500
O46         O  0.55780635  0.20054038  0.23121382    -0.80500
C47         C  0.76111223  0.72848789  0.73014571     0.80700
N48         N  0.76405641  0.75118426  0.70766904    -0.77600
C49         C  0.74627803  0.77790437  0.70971576     0.83200
N50         N  0.72673349  0.78194976  0.73483792    -0.77500
C51         C  0.72428224  0.76020415  0.75795745     0.83300
N52         N  0.74156437  0.73334268  0.75547036    -0.79200
C53         C  0.74505705  0.97203172  0.98307433     0.80700
N54         N  0.76304347  0.97189201  0.00970336    -0.77600
C55         C  0.79046116  0.98888165  0.01123859     0.83200
N56         N  0.80004757  0.00521300  0.98560787    -0.77500
C57         C  0.78272552  0.00521058  0.95871897     0.83300
N58         N  0.75505320  0.98863868  0.95738050    -0.79200
C59         C  0.95960379  0.77412622  0.99374098     0.80700
N60         N  0.93440030  0.76449360  0.97638150    -0.77600
C61         C  0.93865189  0.75363741  0.94683847     0.83200
N62         N  0.96835526  0.75172328  0.93475890    -0.77500
C63         C  0.99399716  0.76113838  0.95147246     0.83300
N64         N  0.98959128  0.77301596  0.98115704    -0.79200
C65         C  0.97019000  0.99191487  0.71453204     0.80700
N66         N  0.97629199  0.02198240  0.72342708    -0.77600
C67         C  0.00091857  0.02910991  0.74271495     0.83200
N68         N  0.01967553  0.00555022  0.75311522    -0.77500
C69         C  0.01388698  0.97533900  0.74474693     0.83300
N70         N  0.98888779  0.96839241  0.72574515    -0.79200
N71         N  0.10249551  0.84396687  0.84408698    -0.36100
N72         N  0.15173065  0.81579810  0.88206405    -0.56600
N73         N  0.19800045  0.86597676  0.86622153    -0.36100
N74         N  0.14623484  0.89741868  0.83283629    -0.56600
C75         C  0.08546954  0.82249481  0.86054860     0.27500
C76         C  0.08168278  0.86570264  0.83390340     0.27500
C77         C  0.21428342  0.85046245  0.88958525     0.27500
C78         C  0.21360529  0.89313365  0.85771241     0.27500
C79         C  0.13109097  0.79168895  0.87875286     0.36100
C80         C  0.17930125  0.80295082  0.89138802     0.36100
C81         C  0.11927744  0.90888677  0.81969358     0.36100
C82         C  0.16875662  0.91999211  0.82887894     0.36100
C83         C  0.05335583  0.83033720  0.86011559    -0.21400
C84         C  0.05091742  0.85744987  0.84274588    -0.21400
C85         C  0.24149138  0.86814318  0.89578886    -0.21400
C86         C  0.24142826  0.89432971  0.87542657    -0.21400
C87         C  0.14523113  0.76331524  0.88605477    -0.22400
C88         C  0.17612969  0.77039296  0.89354289    -0.22400
C89         C  0.12429884  0.93914789  0.80867129    -0.22400
C90         C  0.15525419  0.94627871  0.81473329    -0.22400
C91         C  0.09840004  0.79619627  0.87601544    -0.17800
C92         C  0.08968118  0.89317295  0.81747326    -0.17800
C93         C  0.20172317  0.91732454  0.83607152    -0.17800
C94         C  0.20473385  0.82052144  0.90407212    -0.17800
H95         H  0.03370534  0.81802534  0.87125977     0.15100
H96         H  0.02912340  0.87026729  0.83823493     0.15100
H97         H  0.25976647  0.86263769  0.91286767     0.15100
H98         H  0.25918277  0.91285503  0.87482466     0.15100
H99         H  0.13403863  0.74032496  0.88712508     0.13400
H100        H  0.19388701  0.75381677  0.90146187     0.13400
H101        H  0.10749122  0.95466461  0.79724080     0.13400
H102        H  0.16641326  0.96846191  0.80875181     0.13400
H103        H  0.12685641  0.84370106  0.83956460     0.26700
H104        H  0.17703443  0.85811572  0.85615641     0.26700
N105        N  0.90082262  0.89555650  0.11257750    -0.36100
N106        N  0.87207793  0.93346160  0.16115610    -0.56600
N107        N  0.88863348  0.88783631  0.21056211    -0.36100
N108        N  0.91083316  0.84604055  0.16008714    -0.56600
C109        C  0.88585804  0.91757214  0.09507661     0.27500
C110        C  0.90494924  0.87028043  0.09374810     0.27500
C111        C  0.86652848  0.90590426  0.22647065     0.27500
C112        C  0.89712070  0.86210329  0.22808555     0.27500
C113        C  0.87602468  0.95505695  0.13824155     0.36100
C114        C  0.86528198  0.94957782  0.18764451     0.36100
C115        C  0.91989589  0.83013825  0.13377435     0.36100
C116        C  0.91917920  0.82760917  0.18467710     0.36100
C117        C  0.88142384  0.90642969  0.06453984    -0.21400
C118        C  0.89384775  0.87663066  0.06362981    -0.21400
C119        C  0.86122469  0.89126348  0.25538636    -0.21400
C120        C  0.88091270  0.86443437  0.25670570    -0.21400
C121        C  0.87171422  0.98516853  0.14997298    -0.22400
C122        C  0.86524174  0.98173337  0.18151375    -0.22400
C123        C  0.93239418  0.80107326  0.14144906    -0.22400
C124        C  0.93209752  0.79944034  0.17343100    -0.22400
C125        C  0.87559573  0.94716402  0.10623263    -0.17800
C126        C  0.91854744  0.84153628  0.10268873    -0.17800
C127        C  0.91696465  0.83583666  0.21717589    -0.17800
C128        C  0.85253874  0.93541065  0.21494714    -0.17800
H129        H  0.87009944  0.91823899  0.04496421     0.15100
H130        H  0.89383401  0.86102210  0.04334436     0.15100
H131        H  0.84524758  0.89919813  0.27389455     0.15100
H132        H  0.88182578  0.84769325  0.27591152     0.15100
H133        H  0.87139377  0.00697527  0.13677330     0.13400
H134        H  0.85901799  0.00051274  0.19772536     0.13400
H135        H  0.94202786  0.78324226  0.12578689     0.13400
H136        H  0.94129870  0.77965583  0.18653747     0.13400
H137        H  0.90836098  0.89772662  0.13582146     0.26700
H138        H  0.89809861  0.89286052  0.18853206     0.26700
N139        N  0.80918041  0.93451154  0.63643478    -0.36100
N140        N  0.79930435  0.88504645  0.59023668    -0.56600
N141        N  0.85297489  0.90026490  0.54745708    -0.36100
N142        N  0.86789790  0.94572732  0.59532776    -0.56600
C143        C  0.79320701  0.91245357  0.65303508     0.27500
C144        C  0.83089293  0.94712639  0.65597321     0.27500
C145        C  0.84560390  0.87027989  0.53838241     0.27500
C146        C  0.88382997  0.90735983  0.53953062     0.27500
C147        C  0.77173566  0.88792588  0.60652456     0.36100
C148        C  0.79188545  0.87063456  0.56300416     0.36100
C149        C  0.86201365  0.97102378  0.61385029     0.36100
C150        C  0.88419118  0.95657772  0.57001081     0.36100
C151        C  0.80329729  0.91250226  0.68418179    -0.21400
C152        C  0.82727082  0.93474284  0.68610038    -0.21400
C153        C  0.87227527  0.85806150  0.52304206    -0.21400
C154        C  0.89622721  0.88140000  0.52362789    -0.21400
C155        C  0.74657486  0.87539711  0.58979821    -0.22400
C156        C  0.75915741  0.86501653  0.56173436    -0.22400
C157        C  0.87493743  0.99785188  0.60064095    -0.22400
C158        C  0.88830265  0.98880495  0.57242867    -0.22400
C159        C  0.77204796  0.89090361  0.63921851    -0.17800
C160        C  0.85491969  0.96781353  0.64594033    -0.17800
C161        C  0.89947081  0.93688827  0.54764601    -0.17800
C162        C  0.81498628  0.85529899  0.54427629    -0.17800
H163        H  0.79529314  0.89719507  0.70303860     0.15100
H164        H  0.84138424  0.94006652  0.70680485     0.15100
H165        H  0.87443682  0.83476480  0.51280705     0.15100
H166        H  0.92011985  0.87915267  0.51411975     0.15100
H167        H  0.72250062  0.87164271  0.59829223     0.13400
H168        H  0.74629905  0.85205078  0.54375866     0.13400
H169        H  0.87604957  0.02102767  0.61117798     0.13400
H170        H  0.90084973  0.00369850  0.55598122     0.13400
H171        H  0.80668459  0.93963316  0.61244581     0.26700
H172        H  0.83703354  0.91566288  0.55834310     0.26700
N173        N  0.86180988  0.64353891  0.83161115    -0.36100
N174        N  0.84616069  0.58899155  0.80177089    -0.56600
N175        N  0.87208748  0.54808101  0.85423336    -0.36100
N176        N  0.88238155  0.60486907  0.88765155    -0.56600
C177        C  0.84447340  0.65425863  0.80710263     0.27500
C178        C  0.85555519  0.66245557  0.85623371     0.27500
C179        C  0.84847365  0.52970125  0.84160434     0.27500
C180        C  0.88081475  0.53703694  0.88323511     0.27500
C181        C  0.84887055  0.60709491  0.77584279     0.36100
C182        C  0.84678364  0.55911812  0.79206829     0.36100
C183        C  0.88951700  0.63502217  0.89507718     0.36100
C184        C  0.90367355  0.58671041  0.90328294     0.36100
C185        C  0.82756457  0.68090608  0.81608785    -0.21400
C186        C  0.83456910  0.68605213  0.84737326    -0.21400
C187        C  0.84237013  0.50564014  0.86302509    -0.21400
C188        C  0.86323038  0.50979156  0.88877857    -0.21400
C189        C  0.85099694  0.58867259  0.74897936    -0.22400
C190        C  0.84985106  0.55791516  0.75946645    -0.22400
C191        C  0.91524509  0.63608804  0.91554970    -0.22400
C192        C  0.92426245  0.60553684  0.92066282    -0.22400
C193        C  0.84342327  0.63952096  0.77731031    -0.17800
C194        C  0.87221061  0.66155542  0.88469637    -0.17800
C195        C  0.90254219  0.55339130  0.90447973    -0.17800
C196        C  0.83401988  0.53527611  0.81093363    -0.17800
H197        H  0.81165043  0.69494672  0.80184372     0.15100
H198        H  0.82588334  0.70532931  0.86182480     0.15100
H199        H  0.82505516  0.48689840  0.86033618     0.15100
H200        H  0.86405130  0.49537512  0.90980168     0.15100
H201        H  0.85182450  0.59659978  0.72471073     0.13400
H202        H  0.84958724  0.53681506  0.74514353     0.13400
H203        H  0.92642615  0.65672683  0.92575276     0.13400
H204        H  0.94336714  0.59808231  0.93599783     0.13400
H205        H  0.87843749  0.62528586  0.83122996     0.26700
H206        H  0.88220128  0.56771588  0.84336711     0.26700
N207        N  0.64651227  0.83512057  0.91298626    -0.36100
N208        N  0.59747343  0.81186631  0.86933408    -0.56600
N209        N  0.54723529  0.85194764  0.89591194    -0.36100
N210        N  0.59729330  0.87806140  0.93667513    -0.56600
C211        C  0.66440966  0.82258131  0.88964026     0.27500
C212        C  0.66399739  0.85823542  0.92640542     0.27500
C213        C  0.53280181  0.84202537  0.86865611     0.27500
C214        C  0.53255220  0.87850348  0.90739063     0.27500
C215        C  0.62165813  0.79104999  0.86539621     0.36100
C216        C  0.57168154  0.79885635  0.85527556     0.36100
C217        C  0.62061167  0.87939138  0.95856132     0.36100
C218        C  0.57017817  0.88619435  0.95182362     0.36100
C219        C  0.69417799  0.83689583  0.88899986    -0.21400
C220        C  0.69387138  0.85965064  0.91227121    -0.21400
C221        C  0.50741142  0.86227780  0.86317878    -0.21400
C222        C  0.50739830  0.88521551  0.88724317    -0.21400
C223        C  0.61137276  0.76476094  0.84911988    -0.22400
C224        C  0.58009091  0.76969555  0.84241984    -0.22400
C225        C  0.60871139  0.88847125  0.98759152    -0.22400
C226        C  0.57648951  0.89174261  0.98366692    -0.22400
C227        C  0.65401038  0.79886971  0.86885839    -0.17800
C228        C  0.65300686  0.87783972  0.95093804    -0.17800
C229        C  0.54205841  0.89546229  0.93589050    -0.17800
C230        C  0.54223537  0.81466397  0.84989248    -0.17800
H231        H  0.71379273  0.83191905  0.87304116     0.15100
H232        H  0.71318784  0.87569304  0.91770723     0.15100
H233        H  0.49076455  0.86089198  0.84374929     0.15100
H234        H  0.49070061  0.90449431  0.88957000     0.15100
H235        H  0.62549115  0.74501970  0.84092733     0.13400
H236        H  0.56622427  0.75393915  0.82789280     0.13400
H237        H  0.62207795  0.89293346  0.00896314     0.13400
H238        H  0.55983722  0.89939656  0.00173176     0.13400
H239        H  0.62353072  0.82820138  0.91946969     0.26700
H240        H  0.56601151  0.84045545  0.90687683     0.26700
N241        N  0.89785945  0.10683058  0.85915126    -0.36100
N242        N  0.84929332  0.14775095  0.88624511    -0.56600
N243        N  0.88777698  0.20380556  0.87186449    -0.36100
N244        N  0.93355550  0.16186959  0.84237732    -0.56600
C245        C  0.87227864  0.08763905  0.85905661     0.27500
C246        C  0.91863024  0.09556579  0.83757614     0.27500
C247        C  0.85984690  0.21665928  0.88205676     0.27500
C248        C  0.90226695  0.22341919  0.85052214     0.27500
C249        C  0.84043724  0.11883958  0.89654623     0.36100
C250        C  0.83753397  0.16850162  0.90758941     0.36100
C251        C  0.95602371  0.13948234  0.84085013     0.36100
C252        C  0.94899390  0.18948517  0.84348724     0.36100
C253        C  0.87691073  0.06334920  0.83756440    -0.21400
C254        C  0.90636512  0.06845899  0.82376411    -0.21400
C255        C  0.85682316  0.24594055  0.86780373    -0.21400
C256        C  0.88316071  0.24991565  0.84751445    -0.21400
C257        C  0.82310588  0.12118533  0.92436444    -0.22400
C258        C  0.82115484  0.15253277  0.93132703    -0.22400
C259        C  0.98620320  0.15255900  0.84104853    -0.22400
C260        C  0.98182402  0.18443983  0.84302845    -0.22400
C261        C  0.84668009  0.09040101  0.88034076    -0.17800
C262        C  0.94874712  0.10894201  0.83154853    -0.17800
C263        C  0.93320195  0.21761250  0.83621620    -0.17800
C264        C  0.83820220  0.20165810  0.90408752    -0.17800
H265        H  0.86096027  0.04385217  0.83275392     0.15100
H266        H  0.91763480  0.05369208  0.80606773     0.15100
H267        H  0.83742767  0.26242023  0.87113704     0.15100
H268        H  0.88805004  0.27030189  0.83297709     0.15100
H269        H  0.81296526  0.10233140  0.93835003     0.13400
H270        H  0.80859352  0.16230173  0.95147041     0.13400
H271        H  0.00879245  0.14051072  0.83837498     0.13400
H272        H  0.00088697  0.20159965  0.84304124     0.13400
H273        H  0.90178878  0.12564925  0.87451290     0.26700
H274        H  0.89685215  0.18267083  0.88031811     0.26700
O275        O  0.25515701  0.55897585  0.20724750    -0.78000
C276        C  0.17592683  0.55308535  0.27712657     0.83100
O277        O  0.29936357  0.49024315  0.29805803    -0.79100
O278        O  0.18981083  0.44470393  0.29262824    -0.80600
O279        O  0.19117670  0.46782741  0.17716724    -0.80400
O280        O  0.24996412  0.52186405  0.17061526    -0.79000
Zn281      Zn  0.24287991  0.53599782  0.24996622     1.55700
O282        O  0.15822302  0.46983613  0.21854816    -0.80400
Cd283      Cd  0.23640559  0.48135908  0.19766301     1.59700
Cd284      Cd  0.26479468  0.46282782  0.27266144     1.59600
O285        O  0.27236026  0.44470432  0.19614405    -0.80400
O286        O  0.23321885  0.49077777  0.24483092    -1.90900
Cd287      Cd  0.18742220  0.48262326  0.25829325     1.59900
O288        O  0.29218831  0.43230277  0.24355409    -0.80300
O289        O  0.16601130  0.52449380  0.27620564    -0.79000
C290        C  0.30247495  0.52016872  0.29652046     0.83500
C291        C  0.25677072  0.55038469  0.17818022     0.83200
O292        O  0.20407415  0.56024413  0.26773954    -0.77900
C293        C  0.16292501  0.46526121  0.18882636     0.84000
O294        O  0.28204201  0.53672599  0.28087425    -0.78000
C295        C  0.29113805  0.42792707  0.21371907     0.84100
C296        C  0.20999574  0.42624675  0.30648577     0.84500
O297        O  0.24002298  0.43081812  0.30324399    -0.80500
O298        O  0.28628421  0.18183023  0.53298173    -0.78000
C299        C  0.20173586  0.18175144  0.47742544     0.83100
O300        O  0.31861210  0.25586287  0.43761014    -0.79100
O301        O  0.21059511  0.28464209  0.45146851    -0.80600
O302        O  0.22939060  0.27523506  0.56790372    -0.80400
O303        O  0.28456203  0.21746678  0.57135240    -0.79000
Zn304      Zn  0.27243675  0.20561265  0.49153081     1.55700
O305        O  0.18935161  0.27306455  0.53325547    -0.80400
Cd306      Cd  0.27111735  0.25878149  0.54480806     1.59700
Cd307      Cd  0.28800685  0.28055127  0.46954958     1.59600
O308        O  0.30653901  0.29620715  0.54300291    -0.80400
O309        O  0.26084314  0.24966232  0.49912068    -1.90900
Cd310      Cd  0.21231030  0.25361482  0.49207254     1.59900
O311        O  0.31580114  0.31466772  0.49457249    -0.80300
O312        O  0.18819887  0.20842501  0.48257279    -0.79000
C313        C  0.32130678  0.22607148  0.43443592     0.83500
C314        C  0.28900451  0.18886778  0.56240471     0.83200
O315        O  0.23228483  0.17995139  0.47899652    -0.77900
C316        C  0.19995474  0.27960726  0.56095951     0.84000
O317        O  0.30652942  0.20736794  0.45387215    -0.78000
C318        C  0.32023384  0.31643219  0.52438220     0.84100
C319        C  0.22841494  0.30165267  0.43294284     0.84500
O320        O  0.25820012  0.30503114  0.43801100    -0.80500
O321        O  0.51314371  0.77114207  0.82868862    -0.78000
C322        C  0.43234326  0.70913488  0.81761353     0.83100
O323        O  0.55162561  0.68106654  0.75539089    -0.79100
O324        O  0.44661715  0.70421971  0.70444027    -0.80600
O325        O  0.45928350  0.81435023  0.74339315    -0.80400
O326        O  0.52246437  0.81020035  0.79532906    -0.79000
Zn327      Zn  0.50046425  0.73256095  0.80165786     1.55700
O328        O  0.42105048  0.77764754  0.74038004    -0.80400
Cd329      Cd  0.50293128  0.78872859  0.75262201     1.59700
Cd330      Cd  0.52270022  0.71302450  0.72850358     1.59600
O331        O  0.53570025  0.78876819  0.71225703    -0.80400
O332        O  0.49270426  0.74175798  0.75733666    -1.90900
Cd333      Cd  0.44530112  0.73285408  0.74824250     1.59900
O334        O  0.55366169  0.74047499  0.69990224    -0.80300
O335        O  0.42163148  0.71093100  0.78915702    -0.79000
C336        C  0.55283734  0.67857202  0.78552435     0.83500
C337        C  0.52274550  0.79926872  0.82364694     0.83200
O338        O  0.46061641  0.71812653  0.82375420    -0.77900
C339        C  0.42977767  0.80684062  0.73928667     0.84000
O340        O  0.53466935  0.69630594  0.80260228    -0.78000
C341        C  0.55284024  0.77005136  0.69464213     0.84100
C342        C  0.46663562  0.69022630  0.68535606     0.84500
O343        O  0.49628689  0.68875589  0.69240981    -0.80500
O344        O  0.17804206  0.71379607  0.97618750    -0.78000
C345        C  0.17961308  0.77694989  0.05975322     0.83100
O346        O  0.24931613  0.80074024  0.93528155    -0.79100
O347        O  0.28625274  0.80074937  0.04289293    -0.80600
O348        O  0.26477628  0.67964003  0.04123180    -0.80400
O349        O  0.21452886  0.67589003  0.97902492    -0.79000
Zn350      Zn  0.20017710  0.75573528  0.99047043     1.55700
O351        O  0.26762518  0.72067270  0.07423648    -0.80400
Cd352      Cd  0.25476219  0.70136038  0.99653253     1.59700
Cd353      Cd  0.27450143  0.77466499  0.96964118     1.59600
O354        O  0.29602125  0.69906977  0.96551078    -0.80400
O355        O  0.24522698  0.74839270  0.00099112    -1.90900
Cd356      Cd  0.25245203  0.76128773  0.04712719     1.59900
O357        O  0.30809075  0.74661967  0.94583322    -0.80300
O358        O  0.20829202  0.77639640  0.07045988    -0.79000
C359        C  0.21925145  0.80424164  0.93295086     0.83500
C360        C  0.18595965  0.68476153  0.97305503     0.83200
O361        O  0.17442120  0.76904436  0.03087827    -0.77900
C362        C  0.26974071  0.69072973  0.06902134     0.84000
O363        O  0.20020979  0.78994765  0.95262699    -0.78000
C364        C  0.31391786  0.71728985  0.94839151     0.84100
C365        C  0.30160579  0.81719114  0.02174596     0.84500
O366        O  0.30116226  0.80947224  0.99268273    -0.80500
O367        O  0.01117319  0.48072412  0.92751141    -0.78000
C368        C  0.92333060  0.53876916  0.93033595     0.83100
O369        O  0.04455022  0.56793335  0.00426644    -0.79100
O370        O  0.93715277  0.55550131  0.04215917    -0.80600
O371        O  0.94333252  0.44018067  0.00930056    -0.80400
O372        O  0.00557136  0.43992795  0.95979615    -0.79000
Zn373      Zn  0.99357889  0.52012572  0.95122015     1.55700
O374        O  0.90935086  0.48041476  0.01162647    -0.80400
Cd375      Cd  0.98795279  0.46315530  0.00109233     1.59700
Cd376      Cd  0.01336887  0.53552231  0.02831136     1.59600
O377        O  0.02145462  0.45867151  0.03942507    -0.80400
O378        O  0.98318689  0.51064852  0.99568726    -1.90900
Cd379      Cd  0.93647457  0.52230053  0.00207251     1.59900
O380        O  0.04216398  0.50415780  0.05621321    -0.80300
O381        O  0.91342929  0.53802438  0.95913966    -0.79000
C382        C  0.04590214  0.57282118  0.97445235     0.83500
C383        C  0.01376149  0.45112868  0.93292143     0.83200
O384        O  0.95284078  0.53300531  0.92431546    -0.77900
C385        C  0.91486274  0.45062285  0.01273433     0.84000
O386        O  0.02855640  0.55607500  0.95537093    -0.78000
C387        C  0.04091829  0.47403782  0.05760698     0.84100
C388        C  0.95595712  0.56771438  0.06340804     0.84500
O389        O  0.98607618  0.56278784  0.06185873    -0.80500
O390        O  0.31699245  0.03626213  0.79910271    -0.78000
C391        C  0.32081658  0.95070472  0.74274246     0.83100
O392        O  0.25363917  0.06667718  0.69727406    -0.79100
O393        O  0.21185353  0.96389660  0.71159997    -0.80600
O394        O  0.22242227  0.97087309  0.82829989    -0.80400
O395        O  0.27811091  0.02799070  0.83413755    -0.79000
Zn396      Zn  0.29736647  0.02070205  0.75668381     1.55700
O397        O  0.22957394  0.93604484  0.78949823    -0.80400
Cd398      Cd  0.23769070  0.01498989  0.80650272     1.59700
Cd399      Cd  0.22530385  0.03984059  0.73028637     1.59600
O400        O  0.20328816  0.05416387  0.80610181    -0.80400
O401        O  0.25189212  0.00970963  0.76061595    -1.90900
Cd402      Cd  0.24717312  0.96286779  0.74961423     1.59900
O403        O  0.19886476  0.07388223  0.75732718    -0.80300
O404        O  0.29247697  0.93931945  0.74073227    -0.79000
C405        C  0.28394471  0.06979528  0.69810603     0.83500
C406        C  0.30698968  0.03590034  0.82774075     0.83200
O407        O  0.32437803  0.98030345  0.74801385    -0.77900
C408        C  0.22154342  0.94216070  0.81825280     0.84000
O409        O  0.29984588  0.05467114  0.71949313    -0.78000
C410        C  0.19277952  0.07571244  0.78700712     0.84100
C411        C  0.19111546  0.98290872  0.69896008     0.84500
O412        O  0.19243527  0.01267613  0.70363523    -0.80500
O413        O  0.67673024  0.73685913  0.48305288    -0.78000
C414        C  0.68307583  0.78603061  0.57011457     0.83100
O415        O  0.74946333  0.82032147  0.44422869    -0.79100
O416        O  0.78852894  0.80533428  0.55221996    -0.80600
O417        O  0.76218042  0.68674565  0.53622918    -0.80400
O418        O  0.70420036  0.69330669  0.47566010    -0.79000
Zn419      Zn  0.70156994  0.77370316  0.49906957     1.55700
O420        O  0.76827147  0.72339370  0.57380441    -0.80400
Cd421      Cd  0.74878229  0.71331533  0.49410070     1.59700
Cd422      Cd  0.77413947  0.78872419  0.47534654     1.59600
O423        O  0.78808954  0.71325566  0.46020304    -0.80400
O424        O  0.74502284  0.76041265  0.50532931    -1.90900
Cd425      Cd  0.75370628  0.76699356  0.55252700     1.59900
O426        O  0.80674272  0.76158365  0.44887510    -0.80300
O427        O  0.71140838  0.78013068  0.57985267    -0.79000
C428        C  0.71949334  0.82552253  0.44501500     0.83500
C429        C  0.67766958  0.70831991  0.47401314     0.83200
O430        O  0.67723989  0.78495006  0.54043000    -0.77900
C431        C  0.76945939  0.69437680  0.56487314     0.84000
O432        O  0.70208331  0.80929210  0.46428119    -0.78000
C433        C  0.80888267  0.73169008  0.44668559     0.84100
C434        C  0.80338941  0.82364833  0.53238306     0.84500
O435        O  0.80187086  0.81930553  0.50262443    -0.80500
O436        O  0.02482625  0.78284542  0.32946296    -0.78000
C437        C  0.94040126  0.72099163  0.32503849     0.83100
O438        O  0.06038141  0.69204047  0.25388858    -0.79100
O439        O  0.94998261  0.70444188  0.21798208    -0.80600
O440        O  0.96744563  0.82093567  0.23958156    -0.80400
O441        O  0.02707437  0.82090477  0.29360935    -0.79000
Zn442      Zn  0.01077238  0.74121619  0.30534676     1.55700
O443        O  0.92800741  0.78560846  0.24238413    -0.80400
Cd444      Cd  0.01035937  0.79598320  0.25215043     1.59700
Cd445      Cd  0.02679424  0.71978003  0.22973841     1.59600
O446        O  0.04435134  0.79474136  0.21252522    -0.80400
O447        O  0.00000605  0.74956202  0.26060518    -1.90900
Cd448      Cd  0.95208549  0.74190878  0.25425216     1.59900
O449        O  0.05369694  0.74526327  0.19623069    -0.80300
O450        O  0.92899067  0.72629742  0.29743450    -0.79000
C451        C  0.06629365  0.69149899  0.28338556     0.83500
C452        C  0.03035907  0.81179181  0.32234926     0.83200
O453        O  0.97036050  0.72506713  0.33022740    -0.77900
C454        C  0.93763175  0.81401342  0.23716807     0.84000
O455        O  0.04930625  0.70802904  0.30308106    -0.78000
C456        C  0.05729952  0.77487841  0.19276630     0.84100
C457        C  0.96804911  0.68549527  0.20146568     0.84500
O458        O  0.99837575  0.68801446  0.20270379    -0.80500
O459        O  0.57184923  0.01926811  0.98036167    -0.78000
C460        C  0.56413297  0.96900778  0.06790566     0.83100
O461        O  0.49614039  0.92913073  0.95115320    -0.79100
O462        O  0.45191303  0.95543192  0.05574371    -0.80600
O463        O  0.48450837  0.06803420  0.03553851    -0.80400
O464        O  0.54290398  0.06207881  0.97472991    -0.79000
Zn465      Zn  0.54604925  0.98238862  0.99743997     1.55700
O466        O  0.48415077  0.03246370  0.07437162    -0.80400
Cd467      Cd  0.49839197  0.04117171  0.99371814     1.59700
Cd468      Cd  0.47077898  0.96452197  0.97825353     1.59600
O469        O  0.45849517  0.04074290  0.96120706    -0.80400
O470        O  0.50176091  0.99401740  0.00527816    -1.90900
Cd471      Cd  0.49340587  0.98777380  0.05257081     1.59900
O472        O  0.44038154  0.99227610  0.94919015    -0.80300
O473        O  0.53537144  0.97298302  0.07766090    -0.79000
C474        C  0.52640852  0.92489729  0.95057058     0.83500
C475        C  0.56999080  0.04803316  0.97210158     0.83200
O476        O  0.57062817  0.97151538  0.03844512    -0.77900
C477        C  0.48003031  0.06089591  0.06483560     0.84000
O478        O  0.54482535  0.94409462  0.96577031    -0.78000
C479        C  0.43787622  0.02228398  0.94762856     0.84100
C480        C  0.43221380  0.94018682  0.03754080     0.84500
O481        O  0.43671783  0.94026270  0.00756398    -0.80500
C482        C  0.22432735  0.76824196  0.20107366     0.80700
N483        N  0.23938984  0.73991998  0.20166062    -0.77600
C484        C  0.24539196  0.72570697  0.22976143     0.83200
N485        N  0.23825003  0.74076598  0.25733750    -0.77500
C486        C  0.22443067  0.76958853  0.25681505     0.83300
N487        N  0.21722884  0.78266178  0.22871312    -0.79200
N488        N  0.36736686  0.64865228  0.32101054    -0.36100
N489        N  0.39401948  0.61215731  0.37475522    -0.56600
N490        N  0.37429429  0.55333542  0.34690097    -0.36100
N491        N  0.34561892  0.59124169  0.29571236    -0.56600
C492        C  0.36761169  0.67008479  0.34447779     0.27500
C493        C  0.34545158  0.65841805  0.29990083     0.27500
C494        C  0.38595800  0.54324184  0.37529254     0.27500
C495        C  0.35044485  0.53363238  0.33669314     0.27500
C496        C  0.40375038  0.64194846  0.38092989     0.36100
C497        C  0.41347975  0.59296429  0.39137422     0.36100
C498        C  0.34201476  0.60952389  0.27001566     0.36100
C499        C  0.34120913  0.56147194  0.28609649     0.36100
C500        C  0.34619726  0.69408054  0.33803534    -0.21400
C501        C  0.33220166  0.68674015  0.30971974    -0.21400
C502        C  0.37010088  0.51546468  0.38274794    -0.21400
C503        C  0.34738307  0.50985233  0.35899692    -0.21400
C504        C  0.42924460  0.64184864  0.40156815    -0.22400
C505        C  0.43553190  0.61091705  0.40808645    -0.22400
C506        C  0.33549036  0.59155468  0.24362134    -0.22400
C507        C  0.33520723  0.56091702  0.25367577    -0.22400
C508        C  0.38798473  0.66934179  0.37062802    -0.17800
C509        C  0.33686656  0.64185724  0.27238465    -0.17800
C510        C  0.33271079  0.53733716  0.30734339    -0.17800
C511        C  0.40959858  0.55983213  0.39431195    -0.17800
H512        H  0.34105335  0.71463892  0.35236403     0.15100
H513        H  0.31396854  0.70041969  0.29806310     0.15100
H514        H  0.37354951  0.50140160  0.40373621     0.15100
H515        H  0.33086214  0.49026248  0.35813575     0.15100
H516        H  0.44161163  0.66200385  0.41141047     0.13400
H517        H  0.45354834  0.60280166  0.42436136     0.13400
H518        H  0.32923182  0.59993092  0.22036849     0.13400
H519        H  0.32881012  0.54068144  0.23936897     0.13400
H520        H  0.38214694  0.62901176  0.31912249     0.26700
H521        H  0.38280381  0.57289514  0.33476715     0.26700
C522        C  0.51377574  0.95570656  0.24529867     0.80700
N523        N  0.50985018  0.98537906  0.25742295    -0.77600
C524        C  0.48031803  0.99863545  0.25782095     0.83200
N525        N  0.45513845  0.98184440  0.24737221    -0.77500
C526        C  0.45848582  0.95246663  0.23589714     0.83300
N527        N  0.48790527  0.93959065  0.23465764    -0.79200
N528        N  0.60961452  0.86233373  0.34497932    -0.36100
N529        N  0.64816938  0.85432534  0.40225768    -0.56600
N530        N  0.70495884  0.87680901  0.37020134    -0.36100
N531        N  0.66305609  0.89185601  0.31627446    -0.56600
C532        C  0.58626324  0.86004845  0.36682009     0.27500
C533        C  0.59619588  0.87419855  0.31855708     0.27500
C534        C  0.71833822  0.86818825  0.39823457     0.27500
C535        C  0.72251211  0.90008057  0.35592354     0.27500
C536        C  0.61885400  0.85121212  0.41529110     0.36100
C537        C  0.66927706  0.85092798  0.42603043     0.36100
C538        C  0.64611213  0.88487873  0.29027948     0.36100
C539        C  0.69243461  0.89920954  0.30621821     0.36100
C540        C  0.55738125  0.86888608  0.35372637    -0.21400
C541        C  0.56366656  0.87813316  0.32337878    -0.21400
C542        C  0.74628634  0.88559941  0.40143441    -0.21400
C543        C  0.74844720  0.90614912  0.37538593    -0.21400
C544        C  0.62116175  0.84705224  0.44758964    -0.22400
C545        C  0.65292467  0.84770415  0.45451129    -0.22400
C546        C  0.66457727  0.88816166  0.26332417    -0.22400
C547        C  0.69426387  0.89711215  0.27354495    -0.22400
C548        C  0.58989129  0.85098315  0.39856803    -0.17800
C549        C  0.61294323  0.88285386  0.29083295    -0.17800
C550        C  0.71486683  0.91423016  0.32547119    -0.17800
C551        C  0.70293341  0.84857202  0.42213273    -0.17800
H552        H  0.53430640  0.86984412  0.36527264     0.15100
H553        H  0.54619924  0.88753204  0.30726242     0.15100
H554        H  0.76230898  0.88517152  0.42140614     0.15100
H555        H  0.76717804  0.92322095  0.37119598     0.15100
H556        H  0.60200344  0.84425216  0.46456801     0.13400
H557        H  0.66261542  0.84651768  0.47813439     0.13400
H558        H  0.65694505  0.88588656  0.23901357     0.13400
H559        H  0.71460045  0.90285381  0.25884299     0.13400
H560        H  0.63327842  0.85596961  0.34789014     0.26700
H561        H  0.68437361  0.86684965  0.36120330     0.26700
N562        N  0.30850970  0.89871414  0.13519495    -0.36100
N563        N  0.29238200  0.87279412  0.07760088    -0.56600
N564        N  0.35233910  0.89221120  0.04265722    -0.36100
N565        N  0.37141481  0.91691325  0.10089118    -0.56600
C566        C  0.28620466  0.87739748  0.14401470     0.27500
C567        C  0.33031177  0.89978464  0.15827865     0.27500
C568        C  0.34371966  0.86453074  0.02835180     0.27500
C569        C  0.38378620  0.89885649  0.03662595     0.27500
C570        C  0.26368351  0.87151167  0.09180032     0.36100
C571        C  0.28796534  0.86604461  0.04715672     0.36100
C572        C  0.37003919  0.93177446  0.12913163     0.36100
C573        C  0.39114826  0.93423338  0.08216934     0.36100
C574        C  0.29300230  0.86626870  0.17405470    -0.21400
C575        C  0.32105331  0.88055121  0.18311850    -0.21400
C576        C  0.37020700  0.85363327  0.01179846    -0.21400
C577        C  0.39509418  0.87549551  0.01640279    -0.21400
C578        C  0.24013783  0.86455635  0.07013296    -0.22400
C579        C  0.25548075  0.86163570  0.04150647    -0.22400
C580        C  0.38896306  0.95841539  0.12871257    -0.22400
C581        C  0.40169678  0.96042247  0.09894677    -0.22400
C582        C  0.26160027  0.86628278  0.12421374    -0.17800
C583        C  0.35817323  0.91787760  0.15695039    -0.17800
C584        C  0.40186997  0.92422486  0.05164406    -0.17800
C585        C  0.31219207  0.85030368  0.03072067    -0.17800
H586        H  0.27985986  0.84885920  0.18750629     0.15100
H587        H  0.33362672  0.87658121  0.20503016     0.15100
H588        H  0.37152241  0.83228151  0.99781996     0.15100
H589        H  0.41917053  0.87338607  0.00733531     0.15100
H590        H  0.21542799  0.85883487  0.07504083     0.13400
H591        H  0.24479469  0.85256117  0.02006133     0.13400
H592        H  0.39372736  0.97430152  0.14820226     0.13400
H593        H  0.41737966  0.97899826  0.09148991     0.13400
H594        H  0.30951914  0.91170083  0.11432398     0.26700
H595        H  0.33714497  0.90616849  0.05630438     0.26700
C596        C  0.23544441  0.99179534  0.50580354     0.80700
N597        N  0.24602478  0.01283220  0.48396792    -0.77600
C598        C  0.27076383  0.03233318  0.49062538     0.83200
N599        N  0.28511323  0.03028246  0.51904058    -0.77500
C600        C  0.27503160  0.00951646  0.54099391     0.83300
N601        N  0.25031556  0.98998297  0.53418392    -0.79200
C602        C  0.43095922  0.80459048  0.48867879     0.80700
N603        N  0.41396401  0.78518540  0.46958858    -0.77600
C604        C  0.42463806  0.77839640  0.44010677     0.83200
N605        N  0.45270083  0.79063780  0.43010090    -0.77500
C606        C  0.46986085  0.81005199  0.44888177     0.83300
N607        N  0.45893268  0.81700265  0.47818507    -0.79200
N608        N  0.37258245  0.89345230  0.62560628    -0.36100
N609        N  0.36035287  0.93156832  0.67741433    -0.56600
N610        N  0.38235434  0.88334974  0.72252638    -0.36100
N611        N  0.38934493  0.84149587  0.66860027    -0.56600
C612        C  0.35649981  0.91746813  0.61246844     0.27500
C613        C  0.36705208  0.86791507  0.60785230     0.27500
C614        C  0.36014423  0.90008124  0.73956373     0.27500
C615        C  0.38828024  0.85504903  0.73648729     0.27500
C616        C  0.36617385  0.95338655  0.65539408     0.36100
C617        C  0.36418637  0.94554597  0.70535608     0.36100
C618        C  0.39792857  0.83062706  0.63961698     0.36100
C619        C  0.40941408  0.82747783  0.68922397     0.36100
C620        C  0.34076132  0.90721965  0.58557116    -0.21400
C621        C  0.34773679  0.87565308  0.58248931    -0.21400
C622        C  0.35183571  0.88180129  0.76552921    -0.21400
C623        C  0.37007705  0.85389828  0.76401920    -0.21400
C624        C  0.37399196  0.98181057  0.66903334    -0.22400
C625        C  0.37250949  0.97698209  0.70121629    -0.22400
C626        C  0.42258261  0.80939335  0.64185923    -0.22400
C627        C  0.43011185  0.80767481  0.67312721    -0.22400
C628        C  0.35722167  0.94833134  0.62431713    -0.17800
C629        C  0.38446027  0.84017313  0.61085377    -0.17800
C630        C  0.40829728  0.83067312  0.72254962    -0.17800
C631        C  0.35013056  0.93202350  0.73186456    -0.17800
H632        H  0.32659684  0.92112124  0.56948215     0.15100
H633        H  0.34057624  0.86038874  0.56323322     0.15100
H634        H  0.33509170  0.88813752  0.78400750     0.15100
H635        H  0.36888330  0.83449482  0.78050368     0.15100
H636        H  0.37892626  0.00360324  0.65681179     0.13400
H637        H  0.37560680  0.99476215  0.71933558     0.13400
H638        H  0.43473075  0.79719478  0.62280447     0.13400
H639        H  0.44937728  0.79393431  0.68282501     0.13400
H640        H  0.38865519  0.89484518  0.64429354     0.26700
H641        H  0.39388500  0.89097074  0.70205577     0.26700
N642        N  0.38129015  0.10906412  0.35789014    -0.36100
N643        N  0.41851945  0.15965408  0.33086271    -0.56600
N644        N  0.37903333  0.20864498  0.36222377    -0.36100
N645        N  0.34516843  0.15677960  0.39122533    -0.56600
C646        C  0.40746801  0.09312214  0.34882119     0.27500
C647        C  0.36634321  0.09171658  0.37999419     0.27500
C648        C  0.40344191  0.22624647  0.35023620     0.27500
C649        C  0.36536821  0.22362507  0.38767078     0.27500
C650        C  0.42786027  0.13432640  0.31350131     0.36100
C651        C  0.42523774  0.18519476  0.31306069     0.36100
C652        C  0.32608536  0.13133648  0.39253811     0.36100
C653        C  0.32627160  0.18166386  0.39734986     0.36100
C654        C  0.40879222  0.06462038  0.36475629    -0.21400
C655        C  0.38275619  0.06389196  0.38486484    -0.21400
C656        C  0.40480719  0.25395505  0.36778813    -0.21400
C657        C  0.38129429  0.25210163  0.39154949    -0.21400
C658        C  0.44058025  0.14368208  0.28488165    -0.22400
C659        C  0.43901497  0.17562923  0.28454209    -0.22400
C660        C  0.29535331  0.13989811  0.39994323    -0.22400
C661        C  0.29495657  0.17194104  0.40193675    -0.22400
C662        C  0.42789442  0.10305397  0.32444441    -0.17800
C663        C  0.33758938  0.10057260  0.39434501    -0.17800
C664        C  0.33847982  0.21133164  0.40579354    -0.17800
C665        C  0.42322165  0.21697519  0.32352400    -0.17800
H666        H  0.42627735  0.04612364  0.36193291     0.15100
H667        H  0.37630477  0.04490516  0.40067935     0.15100
H668        H  0.42118388  0.27334014  0.36416645     0.15100
H669        H  0.37634999  0.26988260  0.40926705     0.15100
H670        H  0.45129314  0.12932047  0.26656546     0.13400
H671        H  0.44863577  0.18992758  0.26568683     0.13400
H672        H  0.27611198  0.12421104  0.40522856     0.13400
H673        H  0.27451670  0.18621094  0.40832849     0.13400
H674        H  0.37293975  0.12997815  0.34821810     0.26700
H675        H  0.37155776  0.18744201  0.35237625     0.26700
N676        N  0.15406646  0.86147760  0.40551437    -0.36100
N677        N  0.10157229  0.89244526  0.43684965    -0.56600
N678        N  0.05358338  0.86568573  0.39377458    -0.36100
N679        N  0.10753410  0.83798808  0.35926466    -0.56600
C680        C  0.16916695  0.88297547  0.42365365     0.27500
C681        C  0.17346235  0.85501384  0.38098149     0.27500
C682        C  0.03678616  0.88986666  0.40765353     0.27500
C683        C  0.03849353  0.85548120  0.36702380     0.27500
C684        C  0.12435464  0.89211795  0.45917283     0.36100
C685        C  0.07376447  0.89597879  0.45228453     0.36100
C686        C  0.13494327  0.82512965  0.34789105     0.36100
C687        C  0.08347830  0.82429004  0.34280184     0.36100
C688        C  0.19883739  0.88989382  0.41083598    -0.21400
C689        C  0.20169873  0.87185246  0.38384619    -0.21400
C690        C  0.00991549  0.89489883  0.38924240    -0.21400
C691        C  0.01067859  0.87300051  0.36421404    -0.21400
C692        C  0.11129990  0.89557468  0.48898697    -0.22400
C693        C  0.07895956  0.89736116  0.48470720    -0.22400
C694        C  0.12826684  0.80415870  0.32370665    -0.22400
C695        C  0.09606265  0.80350705  0.32059133    -0.22400
C696        C  0.15654773  0.89560466  0.45173760    -0.17800
C697        C  0.16635874  0.83360323  0.35677672    -0.17800
C698        C  0.05036507  0.83138150  0.34534464    -0.17800
C699        C  0.04583320  0.90583245  0.43693608    -0.17800
H700        H  0.21653416  0.90607521  0.42000812     0.15100
H701        H  0.22198331  0.87152793  0.36793752     0.15100
H702        H  0.99145420  0.91219496  0.39346526     0.15100
H703        H  0.99325526  0.87098546  0.34552017     0.15100
H704        H  0.12388828  0.89790741  0.51115395     0.13400
H705        H  0.06139513  0.90149141  0.50309118     0.13400
H706        H  0.14480818  0.79097746  0.30913593     0.13400
H707        H  0.08353826  0.78986258  0.30292527     0.13400
H708        H  0.13211307  0.85090338  0.41016651     0.26700
H709        H  0.07433368  0.85576473  0.40261516     0.26700
O710        O  0.77410473  0.08232464  0.22381387    -0.78000
C711        C  0.68843924  0.07061700  0.27763904     0.83100
O712        O  0.81030448  0.00985697  0.31746404    -0.79100
O713        O  0.70883032  0.96134669  0.29339081    -0.80600
O714        O  0.72690244  0.98948716  0.18119360    -0.80400
O715        O  0.77934755  0.04900853  0.18367762    -0.79000
Zn716      Zn  0.76105278  0.05704531  0.26426608     1.55700
O717        O  0.68631222  0.98711816  0.21525161    -0.80400
Cd718      Cd  0.76752570  0.00506945  0.20749181     1.59700
Cd719      Cd  0.78472470  0.98303980  0.28361148     1.59600
O720        O  0.80635945  0.97015307  0.20912445    -0.80400
O721        O  0.75557272  0.01164085  0.25393431    -1.90900
Cd722      Cd  0.70843851  0.00052665  0.25942903     1.59900
O723        O  0.81897500  0.95568717  0.25830924    -0.80300
O724        O  0.68132632  0.04149325  0.27289402    -0.79000
C725        C  0.81054498  0.03964989  0.32162051     0.83500
C726        C  0.77975206  0.07739179  0.19435366     0.83200
O727        O  0.71767488  0.07953127  0.27634527    -0.77900
C728        C  0.69722644  0.98414987  0.18697111     0.84000
O729        O  0.79462986  0.05787081  0.30274513    -0.78000
C730        C  0.82394561  0.95396078  0.22855989     0.84100
C731        C  0.72819347  0.94413193  0.31005639     0.84500
O732        O  0.75809371  0.94976314  0.31010837    -0.80500
O733        O  0.82032416  0.22202947  0.95384479    -0.78000
C734        C  0.81076330  0.30622877  0.01002551     0.83100
O735        O  0.74979714  0.18635619  0.04804874    -0.79100
O736        O  0.70666247  0.28878593  0.03147985    -0.80600
O737        O  0.72622618  0.27499234  0.91421513    -0.80400
O738        O  0.78538878  0.22189956  0.91452254    -0.79000
Zn739      Zn  0.79506427  0.23596553  0.99358421     1.55700
O740        O  0.72328737  0.31297813  0.95056384    -0.80400
Cd741      Cd  0.74235887  0.23454718  0.93873577     1.59700
Cd742      Cd  0.72178777  0.21290689  0.01450350     1.59600
O743        O  0.70835244  0.19658787  0.93797862    -0.80400
O744        O  0.74968665  0.24315995  0.98521697    -1.90900
Cd745      Cd  0.74001580  0.28978936  0.99246787     1.59900
O746        O  0.69526805  0.17974723  0.98642564    -0.80300
O747        O  0.78210431  0.31582112  0.00582768    -0.79000
C748        C  0.78017741  0.18664931  0.05067662     0.83500
C749        C  0.81395154  0.21832319  0.92451772     0.83200
O750        O  0.81769291  0.27712652  0.00609727    -0.77900
C751        C  0.72005566  0.30358949  0.92185143     0.84000
O752        O  0.79671856  0.20326339  0.03099753    -0.78000
C753        C  0.69367661  0.17687785  0.95627084     0.84100
C754        C  0.69161917  0.26951048  0.05008368     0.84500
O755        O  0.69189178  0.23973057  0.04521226    -0.80500
C756        C  0.29907197  0.26919172  0.80229543     0.80700
N757        N  0.31670629  0.27636219  0.77621995    -0.77600
C758        C  0.30702984  0.29961248  0.75670247     0.83200
N759        N  0.27990694  0.31539487  0.76303545    -0.77500
C760        C  0.26232166  0.30865361  0.78875910     0.83300
N761        N  0.27192689  0.28558577  0.80859493    -0.79200
C762        C  0.50512824  0.26004387  0.95869512     0.80700
N763        N  0.49559609  0.23240546  0.97178106    -0.77600
C764        C  0.47735287  0.23227092  0.99842769     0.83200
N765        N  0.46879000  0.26004817  0.01161321    -0.77500
C766        C  0.47842433  0.28769251  0.99893903     0.83300
N767        N  0.49617646  0.28774315  0.97222890    -0.79200
C768        C  0.46894440  0.49218789  0.73911285     0.80700
N769        N  0.46238454  0.50916128  0.76534381    -0.77600
C770        C  0.47394242  0.50010086  0.79375862     0.83200
N771        N  0.49151849  0.47339464  0.79595268    -0.77500
C772        C  0.49751693  0.45587024  0.76964831     0.83300
N773        N  0.48640483  0.46551961  0.74133811    -0.79200
C774        C  0.21852398  0.52597697  0.98092163     0.80700
N775        N  0.21997235  0.50363111  0.00361666    -0.77600
C776        C  0.24087260  0.50625085  0.02769582     0.83200
N777        N  0.26120916  0.53107471  0.02841013    -0.77500
C778        C  0.26048403  0.55345269  0.00564770     0.83300
N779        N  0.23916320  0.55054869  0.98162909    -0.79200
N780        N  0.41994128  0.60849392  0.93767620    -0.36100
N781        N  0.37545704  0.65911101  0.95200426    -0.56600
N782        N  0.38541934  0.69384744  0.89376768    -0.36100
N783        N  0.42704286  0.64224580  0.87582305    -0.56600
C784        C  0.40031043  0.59514728  0.95927798     0.27500
C785        C  0.42924411  0.58529733  0.91798265     0.27500
C786        C  0.35758323  0.70701374  0.90423469     0.27500
C787        C  0.39018869  0.70107604  0.86276628     0.27500
C788        C  0.38099306  0.64475693  0.97972604     0.36100
C789        C  0.36207806  0.68693720  0.95878322     0.36100
C790        C  0.44937023  0.61915086  0.87462049     0.36100
C791        C  0.43451853  0.66272562  0.85233802     0.36100
C792        C  0.39868114  0.56289238  0.95440732    -0.21400
C793        C  0.41730923  0.55657152  0.92834619    -0.21400
C794        C  0.34452252  0.72368624  0.87925794    -0.21400
C795        C  0.36534129  0.72047153  0.85339077    -0.21400
C796        C  0.37117293  0.66361977  0.00459357    -0.22400
C797        C  0.35951158  0.69069673  0.99131165    -0.22400
C798        C  0.47067871  0.62460169  0.85023378    -0.22400
C799        C  0.46132236  0.65182915  0.83605561    -0.22400
C800        C  0.38133163  0.61208040  0.98091016    -0.17800
C801        C  0.44672665  0.58984397  0.89001622    -0.17800
C802        C  0.41673436  0.69014341  0.84380414    -0.17800
C803        C  0.34524703  0.70432160  0.93612554    -0.17800
H804        H  0.38449740  0.54598472  0.96746730     0.15100
H805        H  0.42034872  0.53370231  0.91735725     0.15100
H806        H  0.32258800  0.73708026  0.87967042     0.15100
H807        H  0.36204604  0.73051115  0.83016128     0.15100
H808        H  0.36960516  0.65710376  0.02926125     0.13400
H809        H  0.34793930  0.70979036  0.00383148     0.13400
H810        H  0.49001690  0.60956145  0.84243219     0.13400
H811        H  0.47252981  0.66155775  0.81517213     0.13400
H812        H  0.42556301  0.63233148  0.93541491     0.26700
H813        H  0.40133383  0.68118910  0.90748235     0.26700
N814        N  0.60463932  0.32366008  0.82763969    -0.36100
N815        N  0.65008610  0.30591343  0.87457061    -0.56600
N816        N  0.68960504  0.36292630  0.85826327    -0.36100
N817        N  0.64312219  0.37639216  0.80707923    -0.56600
C818        C  0.59421732  0.29466781  0.83517052     0.27500
C819        C  0.58957042  0.33238844  0.80113105     0.27500
C820        C  0.70985537  0.34483139  0.87567834     0.27500
C821        C  0.70658751  0.38209991  0.83834006     0.27500
C822        C  0.62331231  0.29141850  0.88512182     0.36100
C823        C  0.66785016  0.31178706  0.90041721     0.36100
C824        C  0.61322970  0.38504329  0.79931110     0.36100
C825        C  0.65897752  0.40339451  0.81301683     0.36100
C826        C  0.57281379  0.28422024  0.81250962    -0.21400
C827        C  0.56976469  0.30832988  0.79087718    -0.21400
C828        C  0.74078388  0.35304083  0.86710824    -0.21400
C829        C  0.73875813  0.37630489  0.84361414    -0.21400
C830        C  0.62434876  0.28794337  0.91770016    -0.22400
C831        C  0.65274126  0.30041743  0.92729352    -0.22400
C832        C  0.61014750  0.41759322  0.80026925    -0.22400
C833        C  0.63920892  0.42922643  0.80912513    -0.22400
C834        C  0.59780435  0.28190856  0.86551660    -0.17800
C835        C  0.58902386  0.36364966  0.79074587    -0.17800
C836        C  0.69219276  0.40465662  0.81690193    -0.17800
C837        C  0.69962334  0.32226410  0.89933536    -0.17800
H838        H  0.55892350  0.26270711  0.81308007     0.15100
H839        H  0.55326965  0.30904475  0.77129084     0.15100
H840        H  0.76252480  0.34328656  0.87664451     0.15100
H841        H  0.75875165  0.38753041  0.83195361     0.15100
H842        H  0.60655597  0.27792894  0.93326876     0.13400
H843        H  0.66135596  0.30101094  0.95136276     0.13400
H844        H  0.58919952  0.43155825  0.79533285     0.13400
H845        H  0.64532510  0.45387536  0.81194932     0.13400
H846        H  0.61751602  0.33868189  0.84229752     0.26700
H847        H  0.66486420  0.36274225  0.86065847     0.26700
N848        N  0.38887028  0.40032087  0.63221987    -0.36100
N849        N  0.36121770  0.35150409  0.59175473    -0.56600
N850        N  0.37197032  0.39287208  0.53689748    -0.36100
N851        N  0.40321627  0.43827487  0.58017402    -0.56600
C852        C  0.39132543  0.37436060  0.65001117     0.27500
C853        C  0.40825937  0.42215743  0.64473471     0.27500
C854        C  0.36239072  0.36477262  0.52408832     0.27500
C855        C  0.39412791  0.40735623  0.51786224     0.27500
C856        C  0.35032843  0.34615628  0.62130916     0.36100
C857        C  0.33630002  0.34609138  0.57246928     0.36100
C858        C  0.40170330  0.46032912  0.60298771     0.36100
C859        C  0.39928097  0.45323176  0.55273366     0.36100
C860        C  0.41314201  0.37934309  0.67408563    -0.21400
C861        C  0.42385436  0.40993847  0.67081628    -0.21400
C862        C  0.37843052  0.36143725  0.49542910    -0.21400
C863        C  0.39862598  0.38786071  0.49176182    -0.21400
C864        C  0.31848637  0.33763031  0.62109874    -0.22400
C865        C  0.30931224  0.33836413  0.59009729    -0.22400
C866        C  0.39677229  0.48982998  0.59041278    -0.22400
C867        C  0.39497922  0.48535332  0.55828349    -0.22400
C868        C  0.36904203  0.34991004  0.64838215    -0.17800
C869        C  0.40894170  0.45342953  0.63423358    -0.17800
C870        C  0.40765390  0.43851638  0.52409908    -0.17800
C871        C  0.33975602  0.34340234  0.53936544    -0.17800
H872        H  0.41893108  0.36340018  0.69312515     0.15100
H873        H  0.44017264  0.42209745  0.68643675     0.15100
H874        H  0.37645721  0.34180240  0.47918798     0.15100
H875        H  0.41429629  0.39237257  0.47189377     0.15100
H876        H  0.30327779  0.33255136  0.64119688     0.13400
H877        H  0.28548786  0.33355397  0.58154698     0.13400
H878        H  0.39540251  0.51206932  0.60293410     0.13400
H879        H  0.39143147  0.50385810  0.54118769     0.13400
H880        H  0.37203288  0.40425101  0.61460983     0.26700
H881        H  0.36273842  0.40215205  0.55784531     0.26700
N882        N  0.35138919  0.37825955  0.08990839    -0.36100
N883        N  0.40103271  0.35734111  0.13506019    -0.56600
N884        N  0.35862221  0.36835000  0.18860124    -0.36100
N885        N  0.31246512  0.39226864  0.14245063    -0.56600
C886        C  0.37827549  0.38076842  0.07272024     0.27500
C887        C  0.32977158  0.39791547  0.07706959     0.27500
C888        C  0.38670019  0.36143179  0.20323308     0.27500
C889        C  0.34133124  0.38930278  0.20643590     0.27500
C890        C  0.41177055  0.34724930  0.10654893     0.36100
C891        C  0.41411180  0.33781612  0.15668103     0.36100
C892        C  0.29074403  0.39206013  0.11923305     0.36100
C893        C  0.29623308  0.39082478  0.16967869     0.36100
C894        C  0.37369916  0.40154699  0.04795152    -0.21400
C895        C  0.34294141  0.41272359  0.05089289    -0.21400
C896        C  0.38697614  0.37752717  0.23186358    -0.21400
C897        C  0.35888694  0.39555725  0.23355101    -0.21400
C898        C  0.43149706  0.32136011  0.11005641    -0.22400
C899        C  0.43302751  0.31540090  0.14169921    -0.22400
C900        C  0.26018230  0.39035230  0.13154241    -0.22400
C901        C  0.26365618  0.38908327  0.16376538    -0.22400
C902        C  0.40538644  0.36214193  0.07744704    -0.17800
C903        C  0.29862108  0.40219658  0.08889347    -0.17800
C904        C  0.31004575  0.40137644  0.19787648    -0.17800
C905        C  0.41149259  0.34152973  0.18985850    -0.17800
H906        H  0.39070381  0.40779343  0.02968488     0.15100
H907        H  0.33159192  0.42956610  0.03545898     0.15100
H908        H  0.40590587  0.37730167  0.24916136     0.15100
H909        H  0.35214856  0.41109646  0.25274838     0.15100
H910        H  0.44350111  0.30798286  0.09174134     0.13400
H911        H  0.44678613  0.29672607  0.15238138     0.13400
H912        H  0.23795043  0.39236322  0.11879094     0.13400
H913        H  0.24448358  0.39006228  0.18097671     0.13400
H914        H  0.34774172  0.36272582  0.10860721     0.26700
H915        H  0.35145432  0.35840597  0.16726197     0.26700
N916        N  0.35670288  0.14464321  0.92818964    -0.36100
N917        N  0.38831486  0.08967496  0.94969271    -0.56600
N918        N  0.36279528  0.04926186  0.89916609    -0.36100
N919        N  0.33322039  0.10586178  0.87507223    -0.56600
C920        C  0.37800153  0.15674800  0.94883092     0.27500
C921        C  0.35213819  0.16665855  0.90581361     0.27500
C922        C  0.38900136  0.03227618  0.90802417     0.27500
C923        C  0.35175698  0.03853562  0.87085111     0.27500
C924        C  0.38994304  0.10762533  0.97592593     0.36100
C925        C  0.39616795  0.06040412  0.95858378     0.36100
C926        C  0.32041481  0.13429927  0.86842287     0.36100
C927        C  0.31781449  0.08479145  0.85654766     0.36100
C928        C  0.38626873  0.18713823  0.93991987    -0.21400
C929        C  0.36978965  0.19343054  0.91276438    -0.21400
C930        C  0.39428709  0.00950513  0.88496581    -0.21400
C931        C  0.37051242  0.01302346  0.86196718    -0.21400
C932        C  0.39898894  0.08997199  0.00161130    -0.22400
C933        C  0.40218069  0.05972239  0.99086781    -0.22400
C934        C  0.29706178  0.13146607  0.84561686    -0.22400
C935        C  0.29551456  0.10028310  0.83796821    -0.22400
C936        C  0.39069884  0.14042015  0.97485140    -0.17800
C937        C  0.33222759  0.16334149  0.87944847    -0.17800
C938        C  0.32592419  0.05250411  0.85314465    -0.17800
C939        C  0.40681170  0.03753249  0.93689645    -0.17800
H940        H  0.40313120  0.20289836  0.95108101     0.15100
H941        H  0.37128018  0.21499874  0.89925364     0.15100
H942        H  0.41303535  0.99202449  0.88480136     0.15100
H943        H  0.36813627  0.99917844  0.84058210     0.15100
H944        H  0.40484525  0.09866104  0.02484951     0.13400
H945        H  0.41103007  0.04002459  0.00440940     0.13400
H946        H  0.28347036  0.15012435  0.83468007     0.13400
H947        H  0.28090601  0.09056164  0.81931763     0.13400
H948        H  0.34552268  0.12274583  0.92952333     0.26700
H949        H  0.35227384  0.06731587  0.91212938     0.26700
N950        N  0.13820432  0.42659667  0.85056265    -0.36100
N951        N  0.08854732  0.44571092  0.89250415    -0.56600
N952        N  0.04776784  0.39230739  0.87011767    -0.36100
N953        N  0.09860986  0.37671288  0.82480689    -0.56600
C954        C  0.14933695  0.45505712  0.85935687     0.27500
C955        C  0.15571105  0.41700993  0.82576707     0.27500
C956        C  0.02683061  0.41078351  0.88662557     0.27500
C957        C  0.03169066  0.37469496  0.84817035     0.27500
C958        C  0.11408445  0.46028454  0.90539915     0.36100
C959        C  0.06761209  0.44138958  0.91629250     0.36100
C960        C  0.12798498  0.36663873  0.81658997     0.36100
C961        C  0.07966053  0.35108881  0.82337918     0.36100
C962        C  0.17386823  0.46417195  0.83923633    -0.21400
C963        C  0.17821428  0.43970448  0.81810713    -0.21400
C964        C  0.99642532  0.40425668  0.87543221    -0.21400
C965        C  0.99947823  0.38164950  0.85129631    -0.21400
C966        C  0.10928572  0.46540643  0.93742273    -0.22400
C967        C  0.07977035  0.45355333  0.94432081    -0.22400
C968        C  0.12766007  0.33468834  0.80966082    -0.22400
C969        C  0.09693450  0.32487387  0.81364384    -0.22400
C970        C  0.14133636  0.46958367  0.88819340    -0.17800
C971        C  0.15492637  0.38618647  0.81415238    -0.17800
C972        C  0.04638480  0.35212985  0.82681206    -0.17800
C973        C  0.03569435  0.43235308  0.91175089    -0.17800
H974        H  0.18851069  0.48512300  0.84107718     0.15100
H975        H  0.19669631  0.43804441  0.80023590     0.15100
H976        H  0.97437128  0.41469756  0.88368116     0.15100
H977        H  0.98019369  0.37152332  0.83769382     0.15100
H978        H  0.12527478  0.47641762  0.95416472     0.13400
H979        H  0.06821366  0.45442616  0.96724116     0.13400
H980        H  0.14736471  0.31996227  0.80218944     0.13400
H981        H  0.08845645  0.30109527  0.80978743     0.13400
H982        H  0.12241806  0.41242670  0.86311097     0.26700
H983        H  0.07214384  0.39115769  0.87448546     0.26700
C984        C  0.75787604  0.79458345  0.23034896     0.80700
N985        N  0.73658105  0.79736039  0.25456592    -0.77600
C986        C  0.73998099  0.77979665  0.28115289     0.83200
N987        N  0.76384257  0.75822495  0.28232994    -0.77500
C988        C  0.78515223  0.75554520  0.25835965     0.83300
N989        N  0.78201933  0.77380703  0.23246736    -0.79200
N990        N  0.59907617  0.69569168  0.34731045    -0.36100
N991        N  0.57716302  0.63832555  0.38405269    -0.56600
N992        N  0.60649790  0.65798380  0.44154058    -0.36100
N993        N  0.63360652  0.71109669  0.40326599    -0.56600
C994        C  0.59420774  0.67392778  0.32476151     0.27500
C995        C  0.62162547  0.71561110  0.33638359     0.27500
C996        C  0.59781869  0.62777822  0.44846843     0.27500
C997        C  0.63376144  0.66578807  0.45730500     0.27500
C998        C  0.55992802  0.64003952  0.35724352     0.36100
C999        C  0.55880849  0.62282547  0.40534818     0.36100
C1000       C  0.63175034  0.73856919  0.38738199     0.36100
C1001       C  0.63651301  0.71867228  0.43397042     0.36100
C1002       C  0.61283298  0.68062045  0.29843973    -0.21400
C1003       C  0.63037768  0.70715444  0.30586292    -0.21400
C1004       C  0.61983281  0.61613345  0.46993273    -0.21400
C1005       C  0.64257749  0.63991681  0.47525663    -0.21400
C1006       C  0.53062440  0.62570390  0.36111263    -0.22400
C1007       C  0.52938831  0.61571707  0.39188695    -0.22400
C1008       C  0.63358133  0.76389219  0.40756512    -0.22400
C1009       C  0.63548420  0.75143076  0.43732976    -0.22400
C1010       C  0.57304223  0.64861737  0.32801720    -0.17800
C1011       C  0.63475896  0.74008085  0.35459764    -0.17800
C1012       C  0.64840347  0.69664722  0.45609847    -0.17800
C1013       C  0.57055614  0.61173025  0.43483409    -0.17800
H1014       H  0.61408974  0.66745638  0.27652183     0.15100
H1015       H  0.64810044  0.71824712  0.29090322     0.15100
H1016       H  0.62005157  0.59277064  0.48008015     0.15100
H1017       H  0.66299537  0.63834316  0.49071790     0.15100
H1018       H  0.51228448  0.62255858  0.34343972     0.13400
H1019       H  0.50908858  0.60417890  0.40260171     0.13400
H1020       H  0.63405398  0.78852537  0.40126685     0.13400
H1021       H  0.63664837  0.76536429  0.45871832     0.13400
H1022       H  0.58756113  0.69670967  0.36921509     0.26700
H1023       H  0.59357908  0.67322407  0.42719761     0.26700
C1024       C  0.73435866  0.50347398  0.97410837     0.80700
N1025       N  0.74400040  0.53003247  0.98989972    -0.77600
C1026       C  0.76058747  0.52738803  0.01737489     0.83200
N1027       N  0.76750306  0.49849659  0.02874178    -0.77500
C1028       C  0.75837736  0.47195270  0.01359429     0.83300
N1029       N  0.74142947  0.47464240  0.98640329    -0.79200
C1030       C  0.51403327  0.69767756  0.06794283     0.80700
N1031       N  0.52165402  0.67822175  0.04365409    -0.77600
C1032       C  0.54732827  0.68386065  0.02520886     0.83200
N1033       N  0.56554077  0.70949823  0.03083832    -0.77500
C1034       C  0.55833785  0.72934009  0.05484159     0.83300
N1035       N  0.53242846  0.72352964  0.07343154    -0.79200
C1036       C  0.55828079  0.50761757  0.20678782     0.80700
N1037       N  0.56793003  0.53167414  0.22581243    -0.77600
C1038       C  0.54640930  0.55269021  0.23722342     0.83200
N1039       N  0.51526193  0.54906652  0.23034410    -0.77500
C1040       C  0.50528139  0.52529330  0.21160298     0.83300
N1041       N  0.52679266  0.50479186  0.19943137    -0.79200
N1042       N  0.38059240  0.62451617  0.15473092    -0.36100
N1043       N  0.33825181  0.66776169  0.12076144    -0.56600
N1044       N  0.28822594  0.61932899  0.12407624    -0.36100
N1045       N  0.33237554  0.57896459  0.16118425    -0.56600
C1046       C  0.39688032  0.65172750  0.15613060     0.27500
C1047       C  0.39431807  0.60448016  0.17524389     0.27500
C1048       C  0.27200764  0.64389866  0.11076582     0.27500
C1049       C  0.26752661  0.59968834  0.13981402     0.27500
C1050       C  0.36731693  0.68074628  0.11513910     0.36100
C1051       C  0.31914486  0.67785886  0.09716182     0.36100
C1052       C  0.35785100  0.56041555  0.16627611     0.36100
C1053       C  0.30797742  0.55977651  0.15434025     0.36100
C1054       C  0.42118581  0.64933670  0.17809424    -0.21400
C1055       C  0.41956377  0.61933999  0.19027352    -0.21400
C1056       C  0.23982473  0.63920076  0.11727193    -0.21400
C1057       C  0.23709588  0.61197027  0.13599126    -0.21400
C1058       C  0.36647594  0.69968654  0.08864043    -0.22400
C1059       C  0.33607533  0.69802027  0.07736724    -0.22400
C1060       C  0.34980254  0.52901520  0.16302455    -0.22400
C1061       C  0.31797576  0.52853555  0.15554133    -0.22400
C1062       C  0.39519400  0.67483891  0.13269480    -0.17800
C1063       C  0.38718835  0.57212205  0.17666409    -0.17800
C1064       C  0.27626655  0.57017365  0.15516455    -0.17800
C1065       C  0.28644274  0.66995899  0.09331972    -0.17800
H1066       H  0.43953053  0.66663313  0.18299322     0.15100
H1067       H  0.43628116  0.60915591  0.20672135     0.15100
H1068       H  0.22036757  0.65415949  0.10991085     0.15100
H1069       H  0.21509803  0.60185642  0.14482309     0.15100
H1070       H  0.38588492  0.71297101  0.07820228     0.13400
H1071       H  0.32763670  0.70999963  0.05651943     0.13400
H1072       H  0.36492142  0.50871490  0.16664077     0.13400
H1073       H  0.30376353  0.50750970  0.15225414     0.13400
H1074       H  0.36397693  0.61874384  0.13751046     0.26700
H1075       H  0.31258046  0.61567977  0.12155177     0.26700
N1076       N  0.68750449  0.38622409  0.13975584    -0.36100
N1077       N  0.62812856  0.35167640  0.15978763    -0.56600
N1078       N  0.64391017  0.29514581  0.12598533    -0.36100
N1079       N  0.70043065  0.33156992  0.10337121    -0.56600
C1080       C  0.66724152  0.40967896  0.14718964     0.27500
C1081       C  0.70764117  0.39751335  0.11748124     0.27500
C1082       C  0.61291084  0.28915605  0.13414873     0.27500
C1083       C  0.65112537  0.28053761  0.09799867     0.27500
C1084       C  0.63019932  0.37740738  0.17864709     0.36100
C1085       C  0.60864481  0.33109555  0.17491149     0.36100
C1086       C  0.72878222  0.34656135  0.10210707     0.36100
C1087       C  0.70603065  0.30155977  0.09516115     0.36100
C1088       C  0.67526356  0.43667672  0.13061093    -0.21400
C1089       C  0.70086558  0.42896174  0.11168973    -0.21400
C1090       C  0.60038920  0.26904013  0.11137421    -0.21400
C1091       C  0.62420702  0.26402210  0.08845079    -0.21400
C1092       C  0.61231044  0.37339617  0.20573758    -0.22400
C1093       C  0.59913711  0.34402664  0.20363438    -0.22400
C1094       C  0.75279103  0.32622537  0.09319935    -0.22400
C1095       C  0.73851075  0.29732402  0.08950136    -0.22400
C1096       C  0.64169322  0.40675544  0.16844546    -0.17800
C1097       C  0.73088184  0.37934416  0.10163408    -0.17800
C1098       C  0.68182197  0.28256649  0.08221190    -0.17800
C1099       C  0.59640473  0.30285205  0.16112833    -0.17800
H1100       H  0.66341225  0.45929273  0.13139767     0.15100
H1101       H  0.71240418  0.44451196  0.09494607     0.15100
H1102       H  0.57628369  0.25991923  0.11063174     0.15100
H1103       H  0.62188038  0.24991499  0.06724197     0.15100
H1104       H  0.60818383  0.39044460  0.22440563     0.13400
H1105       H  0.58338923  0.33416469  0.22106322     0.13400
H1106       H  0.77732357  0.33224870  0.08799381     0.13400
H1107       H  0.74983743  0.27633318  0.08022573     0.13400
H1108       H  0.68733546  0.36365611  0.14944419     0.26700
H1109       H  0.65980541  0.30854303  0.13929233     0.26700
N1110       N  0.60011516  0.56878444  0.88947836    -0.36100
N1111       N  0.65134764  0.53538837  0.83193406    -0.56600
N1112       N  0.60904748  0.60612934  0.79731939    -0.36100
N1113       N  0.57650794  0.62636712  0.85399637    -0.56600
C1114       C  0.61458307  0.54318497  0.90192148     0.27500
C1115       C  0.58813280  0.58552864  0.91368407     0.27500
C1116       C  0.62964417  0.59267959  0.77635037     0.27500
C1117       C  0.59562420  0.63255701  0.78502914     0.27500
C1118       C  0.63027969  0.52180123  0.85179702     0.36100
C1119       C  0.63398427  0.54436914  0.80677674     0.36100
C1120       C  0.57196727  0.63524918  0.88443466     0.36100
C1121       C  0.57179849  0.65231650  0.83579821     0.36100
C1122       C  0.61133432  0.54314990  0.93437147    -0.21400
C1123       C  0.59402394  0.56960854  0.94185214    -0.21400
C1124       C  0.63026893  0.61134175  0.74956912    -0.21400
C1125       C  0.60841644  0.63603109  0.75472190    -0.21400
C1126       C  0.60015645  0.52043900  0.83822094    -0.22400
C1127       C  0.60245009  0.53530346  0.80964987    -0.22400
C1128       C  0.56437139  0.66697033  0.88566958    -0.22400
C1129       C  0.56488978  0.67778117  0.85537638    -0.22400
C1130       C  0.63457625  0.52303551  0.88447126    -0.17800
C1131       C  0.57521046  0.61618659  0.91180156    -0.17800
C1132       C  0.57394958  0.65366326  0.80189080    -0.17800
C1133       C  0.64623528  0.56366417  0.78301489    -0.17800
H1134       H  0.62135123  0.52646130  0.95086071     0.15100
H1135       H  0.58818586  0.57719808  0.96562338     0.15100
H1136       H  0.64434350  0.60739266  0.72843583     0.15100
H1137       H  0.60371653  0.65495703  0.73836277     0.15100
H1138       H  0.57816945  0.51324137  0.84965123     0.13400
H1139       H  0.58307008  0.54053030  0.79368568     0.13400
H1140       H  0.56016922  0.68138921  0.90641781     0.13400
H1141       H  0.56242718  0.70228973  0.84930104     0.13400
H1142       H  0.60074350  0.57563003  0.86606963     0.26700
H1143       H  0.60486444  0.59677087  0.81930547     0.26700
N1144       N  0.84136306  0.61862350  0.15756608    -0.36100
N1145       N  0.89709333  0.64255001  0.18818982    -0.56600
N1146       N  0.94254037  0.61795767  0.14126347    -0.36100
N1147       N  0.88592866  0.59815678  0.10634778    -0.56600
C1148       C  0.82907580  0.63965572  0.17814976     0.27500
C1149       C  0.82233710  0.61792257  0.13199898     0.27500
C1150       C  0.95957156  0.64244733  0.15419810     0.27500
C1151       C  0.95491232  0.60920816  0.11252830     0.27500
C1152       C  0.87580294  0.64052234  0.21198229     0.36100
C1153       C  0.92580444  0.64579612  0.20165470     0.36100
C1154       C  0.85762666  0.58342780  0.10219700     0.36100
C1155       C  0.90842512  0.57701810  0.09770896     0.36100
C1156       C  0.80113588  0.65208357  0.16586917    -0.21400
C1157       C  0.79672912  0.63801563  0.13657319    -0.21400
C1158       C  0.98427362  0.64908286  0.13315679    -0.21400
C1159       C  0.98163707  0.62800868  0.10734673    -0.21400
C1160       C  0.89099653  0.64230061  0.24092917    -0.22400
C1161       C  0.92290468  0.64551277  0.23437676    -0.22400
C1162       C  0.86187981  0.55300334  0.09138727    -0.22400
C1163       C  0.89417990  0.54862539  0.08953633    -0.22400
C1164       C  0.84368093  0.64765772  0.20708658    -0.17800
C1165       C  0.82801143  0.59832088  0.10576543    -0.17800
C1166       C  0.94073836  0.58509444  0.09205186    -0.17800
C1167       C  0.95217379  0.65725291  0.18472892    -0.17800
H1168       H  0.78581781  0.66963146  0.17661450     0.15100
H1169       H  0.77732712  0.64237444  0.12038830     0.15100
H1170       H  0.00238618  0.66704408  0.13603575     0.15100
H1171       H  0.99707307  0.62736233  0.08679608     0.15100
H1172       H  0.87991705  0.64404488  0.26402997     0.13400
H1173       H  0.94153187  0.64979790  0.25152288     0.13400
H1174       H  0.84361643  0.53582292  0.08580864     0.13400
H1175       H  0.90607084  0.52728516  0.08214982     0.13400
H1176       H  0.86164399  0.60487274  0.16101332     0.26700
H1177       H  0.92304704  0.60691734  0.15182017     0.26700
N1178       N  0.67005816  0.86580730  0.09514693    -0.36100
N1179       N  0.61412092  0.90177562  0.08118169    -0.56600
N1180       N  0.63460328  0.95144616  0.12617260    -0.36100
N1181       N  0.69417516  0.91459405  0.13652545    -0.56600
C1182       C  0.65683417  0.84770539  0.07263274     0.27500
C1183       C  0.70003023  0.85547623  0.09939794     0.27500
C1184       C  0.61293947  0.96723953  0.10796643     0.27500
C1185       C  0.65359010  0.97241570  0.14208628     0.27500
C1186       C  0.60396410  0.87293124  0.07213801     0.36100
C1187       C  0.58784118  0.91981751  0.08332683     0.36100
C1188       C  0.71170123  0.88934808  0.14535306     0.36100
C1189       C  0.69242743  0.93322183  0.16242101     0.36100
C1190       C  0.67882601  0.82579877  0.06181944    -0.21400
C1191       C  0.70640960  0.83093780  0.07864183    -0.21400
C1192       C  0.61803316  0.99925712  0.11284192    -0.21400
C1193       C  0.64326827  0.00248690  0.13440980    -0.21400
C1194       C  0.57125348  0.87273352  0.06785935    -0.22400
C1195       C  0.56102903  0.90259363  0.07460594    -0.22400
C1196       C  0.72132346  0.89248298  0.17656240    -0.22400
C1197       C  0.70922680  0.92007626  0.18722327    -0.22400
C1198       C  0.62405485  0.84702326  0.06656539    -0.17800
C1199       C  0.71804338  0.86262455  0.12630649    -0.17800
C1200       C  0.67932037  0.96370205  0.16328729    -0.17800
C1201       C  0.58840778  0.95255711  0.08850063    -0.17800
H1202       H  0.67481927  0.80694951  0.04502793     0.15100
H1203       H  0.72773103  0.81661852  0.07769407     0.15100
H1204       H  0.60477998  0.01832783  0.10225308     0.15100
H1205       H  0.65307702  0.02445240  0.14308506     0.15100
H1206       H  0.55646725  0.85335911  0.05990751     0.13400
H1207       H  0.53666493  0.91077851  0.07293953     0.13400
H1208       H  0.73494771  0.87645871  0.19089641     0.13400
H1209       H  0.71261082  0.92958137  0.21069596     0.13400
H1210       H  0.65774311  0.88105768  0.10998377     0.26700
H1211       H  0.63588272  0.92711185  0.12856499     0.26700
O1212       O  0.71241100  0.47380508  0.66348295    -0.78000
C1213       C  0.76564911  0.55659493  0.67817313     0.83100
O1214       O  0.79602093  0.43251750  0.74376654    -0.79100
O1215       O  0.78539981  0.53971944  0.78052277    -0.80600
O1216       O  0.66844974  0.51944882  0.75735463    -0.80400
O1217       O  0.67091807  0.47022663  0.69574519    -0.79000
Zn1218     Zn  0.75112965  0.48528665  0.69259561     1.55700
O1219       O  0.70156950  0.56000553  0.76495096    -0.80400
Cd1220     Cd  0.69365562  0.48055930  0.74027728     1.59700
Cd1221     Cd  0.76694299  0.46463531  0.76875125     1.59600
O1222       O  0.69205776  0.44287039  0.77424404    -0.80400
O1223       O  0.73984029  0.49266235  0.73718787    -1.90900
Cd1224     Cd  0.74540388  0.53949850  0.74758883     1.59900
O1225       O  0.73843320  0.43568569  0.79873377    -0.80300
O1226       O  0.75718417  0.56627193  0.70572343    -0.79000
C1227       C  0.79952908  0.42932610  0.71398964     0.83500
C1228       C  0.68246521  0.46928693  0.66762941     0.83200
O1229       O  0.76584497  0.52696241  0.67185648    -0.77900
C1230       C  0.67342439  0.54801135  0.76590060     0.84000
O1231       O  0.78494268  0.44789078  0.69448831    -0.78000
C1232       C  0.70890174  0.42892504  0.79564849     0.84100
C1233       C  0.80388045  0.52108699  0.79651852     0.84500
O1234       O  0.79928041  0.49135049  0.79647917    -0.80500
O1235       O  0.07571554  0.02862749  0.48737612    -0.78000
C1236       C  0.05796683  0.97817613  0.57720267     0.83100
O1237       O  0.99993420  0.93964102  0.45142141    -0.79100
O1238       O  0.94898598  0.96645510  0.55425476    -0.80600
O1239       O  0.98605570  0.07798783  0.53633230    -0.80400
O1240       O  0.04260096  0.06873165  0.47879451    -0.79000
Zn1241     Zn  0.04865296  0.99032736  0.50417102     1.55700
O1242       O  0.97796155  0.04279048  0.57435967    -0.80400
Cd1243     Cd  0.99833244  0.04931471  0.49572609     1.59700
Cd1244     Cd  0.97312210  0.97376856  0.47826079     1.59600
O1245       O  0.95929645  0.04997940  0.46200896    -0.80400
O1246       O  0.00284324  0.00272393  0.50725861    -1.90900
Cd1247     Cd  0.98959347  0.99880688  0.55315872     1.59900
O1248       O  0.94326696  0.00147308  0.44806491    -0.80300
O1249       O  0.02892768  0.98645263  0.58137431    -0.79000
C1250       C  0.02994401  0.93435652  0.45322093     0.83500
C1251       C  0.07087403  0.05712466  0.47828366     0.83200
O1252       O  0.06959136  0.97738935  0.54898941    -0.77900
C1253       C  0.97844012  0.07148329  0.56503699     0.84000
O1254       O  0.04765873  0.95207340  0.47111248    -0.78000
C1255       C  0.93990219  0.03143695  0.44688420     0.84100
C1256       C  0.93142617  0.94990956  0.53514652     0.84500
O1257       O  0.93834959  0.94839033  0.50566781    -0.80500
C1258       C  0.50842140  0.98563960  0.78388316     0.80700
N1259       N  0.49272266  0.01277208  0.77783431    -0.77600
C1260       C  0.47212884  0.01449677  0.75358347     0.83200
N1261       N  0.46718974  0.98895078  0.73493962    -0.77500
C1262       C  0.48208045  0.96128701  0.74112122     0.83300
N1263       N  0.50343323  0.96004962  0.76523997    -0.79200
C1264       C  0.73187630  0.05341052  0.55216083     0.80700
N1265       N  0.71569455  0.02959798  0.56585939    -0.77600
C1266       C  0.68666029  0.02110415  0.55514957     0.83200
N1267       N  0.67395531  0.03645805  0.53030264    -0.77500
C1268       C  0.68986433  0.06045504  0.51634786     0.83300
N1269       N  0.71883974  0.06881827  0.52741160    -0.79200
C1270       C  0.49704289  0.28971014  0.47749673     0.80700
N1271       N  0.48442412  0.27985301  0.50531815    -0.77600
C1272       C  0.46851181  0.25225684  0.50690083     0.83200
N1273       N  0.46518707  0.23440577  0.48060729    -0.77500
C1274       C  0.47743101  0.24392343  0.45254670     0.83300
N1275       N  0.49418286  0.27135525  0.45134706    -0.79200
N1276       N  0.58684981  0.12862530  0.38238530    -0.36100
N1277       N  0.56200076  0.14994606  0.32617046    -0.56600
N1278       N  0.61506390  0.12553993  0.28701508    -0.36100
N1279       N  0.64330787  0.10671865  0.34545102    -0.56600
C1280       C  0.56348850  0.14798194  0.39269971     0.27500
C1281       C  0.61017677  0.12975492  0.40387366     0.27500
C1282       C  0.60487182  0.15064223  0.26945513     0.27500
C1283       C  0.64443068  0.11583696  0.27702662     0.27500
C1284       C  0.53503708  0.14902664  0.34334108     0.36100
C1285       C  0.55320438  0.15355016  0.29613925     0.36100
C1286       C  0.64979492  0.09704486  0.37515099     0.36100
C1287       C  0.66077112  0.08808762  0.32595591     0.36100
C1288       C  0.57179825  0.16115337  0.42154193    -0.21400
C1289       C  0.60145633  0.14938106  0.42874007    -0.21400
C1290       C  0.62836101  0.15675927  0.24702483    -0.21400
C1291       C  0.65281574  0.13441110  0.25126492    -0.21400
C1292       C  0.50873519  0.15200294  0.32430758    -0.22400
C1293       C  0.52020352  0.15482399  0.29403151    -0.22400
C1294       C  0.67174512  0.07273982  0.37467106    -0.22400
C1295       C  0.67853844  0.06687903  0.34361297    -0.22400
C1296       C  0.53533957  0.15384695  0.37584967    -0.17800
C1297       C  0.63734463  0.11074792  0.40292224    -0.17800
C1298       C  0.66337748  0.09191129  0.29276251    -0.17800
C1299       C  0.57434142  0.16628545  0.27411724    -0.17800
H1300       H  0.55813625  0.17758435  0.43574437     0.15100
H1301       H  0.61502713  0.15446829  0.44986247     0.15100
H1302       H  0.62782822  0.17501475  0.22924659     0.15100
H1303       H  0.67484970  0.13308847  0.23791570     0.15100
H1304       H  0.48451478  0.15509031  0.33221442     0.13400
H1305       H  0.50641133  0.16053007  0.27328199     0.13400
H1306       H  0.68191538  0.06051379  0.39463691     0.13400
H1307       H  0.69542223  0.04947263  0.33521636     0.13400
H1308       H  0.58639687  0.11409845  0.36247769     0.26700
H1309       H  0.60235654  0.11482377  0.30523595     0.26700
N1310       N  0.40681444  0.14792979  0.64861329    -0.36100
N1311       N  0.36028505  0.16880787  0.60298983    -0.56600
N1312       N  0.31010249  0.12696924  0.62850814    -0.36100
N1313       N  0.35683903  0.11013616  0.67837852    -0.56600
C1314       C  0.42220603  0.17281781  0.63636559     0.27500
C1315       C  0.42058062  0.14100671  0.67631048     0.27500
C1316       C  0.29290410  0.14777224  0.61073900     0.27500
C1317       C  0.29123253  0.11318118  0.65115262     0.27500
C1318       C  0.38848370  0.17583381  0.58921648     0.36100
C1319       C  0.33910421  0.16609473  0.57926898     0.36100
C1320       C  0.38488011  0.09684076  0.68650378     0.36100
C1321       C  0.33600901  0.08599988  0.67578684     0.36100
C1322       C  0.44649681  0.18213938  0.65649971    -0.21400
C1323       C  0.44545254  0.16179530  0.68205352    -0.21400
C1324       C  0.26167474  0.14668344  0.62191180    -0.21400
C1325       C  0.26060205  0.12499996  0.64713190    -0.21400
C1326       C  0.38528256  0.17758106  0.55670676    -0.22400
C1327       C  0.35400651  0.17129022  0.55036427    -0.22400
C1328       C  0.38192267  0.06446728  0.68887926    -0.22400
C1329       C  0.35097959  0.05764028  0.68158173    -0.22400
C1330       C  0.41600145  0.18442489  0.60609680    -0.17800
C1331       C  0.41268396  0.11398517  0.69358974    -0.17800
C1332       C  0.30278426  0.09008333  0.67395050    -0.17800
C1333       C  0.30597446  0.16583828  0.58433112    -0.17800
H1334       H  0.46363862  0.20086045  0.65269593     0.15100
H1335       H  0.46166750  0.16159448  0.70188263     0.15100
H1336       H  0.24169198  0.15988491  0.61279223     0.15100
H1337       H  0.23967334  0.11884614  0.66083886     0.15100
H1338       H  0.40335155  0.18347253  0.53936808     0.13400
H1339       H  0.34346091  0.17144926  0.52710344     0.13400
H1340       H  0.40016029  0.04762348  0.69515361     0.13400
H1341       H  0.33998707  0.03460946  0.68168177     0.13400
H1342       H  0.38938627  0.13457681  0.63734372     0.26700
H1343       H  0.33405678  0.12163818  0.62476005     0.26700
C1344       C  0.71559210  0.22734813  0.75310602     0.80700
N1345       N  0.69281883  0.24435674  0.73816273    -0.77600
C1346       C  0.70127895  0.26580723  0.71610265     0.83200
N1347       N  0.73241872  0.26988351  0.70858090    -0.77500
C1348       C  0.75550875  0.25318001  0.72303913     0.83300
N1349       N  0.74681262  0.23165892  0.74520801    -0.79200
N1350       N  0.62434616  0.35750263  0.57615341    -0.36100
N1351       N  0.64754600  0.39966158  0.62662417    -0.56600
N1352       N  0.63250545  0.45582322  0.59093060    -0.36100
N1353       N  0.60609383  0.41276148  0.54321348    -0.56600
C1354       C  0.62268202  0.33831514  0.60138105     0.27500
C1355       C  0.60448475  0.34570836  0.55407033     0.27500
C1356       C  0.64201881  0.46853816  0.61908720     0.27500
C1357       C  0.61000985  0.47461438  0.57696590     0.27500
C1358       C  0.65651869  0.37069429  0.63640942     0.36100
C1359       C  0.66727111  0.42026693  0.64125680     0.36100
C1360       C  0.60616939  0.39160826  0.51950844     0.36100
C1361       C  0.60454999  0.44122919  0.52973003     0.36100
C1362       C  0.60246407  0.31323698  0.59501981    -0.21400
C1363       C  0.59079199  0.31797170  0.56498857    -0.21400
C1364       C  0.62632267  0.49714212  0.62257701    -0.21400
C1365       C  0.60577695  0.50061997  0.59657426    -0.21400
C1366       C  0.68184022  0.37281798  0.65717973    -0.22400
C1367       C  0.68861999  0.40406316  0.66025715    -0.22400
C1368       C  0.60474493  0.40656959  0.49054514    -0.22400
C1369       C  0.60390506  0.43825617  0.49702628    -0.22400
C1370       C  0.64040098  0.34243983  0.62913928    -0.17800
C1371       C  0.59838286  0.36008598  0.52471775    -0.17800
C1372       C  0.59463506  0.46784725  0.54677645    -0.17800
C1373       C  0.66368130  0.45346049  0.64118904    -0.17800
H1374       H  0.59664146  0.29375262  0.61046093     0.15100
H1375       H  0.57400283  0.30290838  0.55275312     0.15100
H1376       H  0.62847542  0.51326188  0.64231653     0.15100
H1377       H  0.58989923  0.52023883  0.59250771     0.15100
H1378       H  0.69391719  0.35386363  0.66927397     0.13400
H1379       H  0.70646927  0.41375626  0.67586069     0.13400
H1380       H  0.60203282  0.39568686  0.46753541     0.13400
H1381       H  0.60051926  0.45686651  0.47992801     0.13400
H1382       H  0.63893053  0.37725548  0.57385300     0.26700
H1383       H  0.64160732  0.43500996  0.58156575     0.26700
N1384       N  0.57571327  0.89009938  0.61992262    -0.36100
N1385       N  0.63492713  0.85371968  0.60236572    -0.56600
N1386       N  0.60868124  0.79586791  0.62409700    -0.36100
N1387       N  0.55343545  0.83454546  0.64581479    -0.56600
C1388       C  0.59862440  0.91206061  0.62074352     0.27500
C1389       C  0.55180050  0.90049673  0.63867070     0.27500
C1390       C  0.63863920  0.78640667  0.61561179     0.27500
C1391       C  0.59786936  0.77901138  0.64952673     0.27500
C1392       C  0.63938595  0.88276514  0.59013664     0.36100
C1393       C  0.65319332  0.83399651  0.58475480     0.36100
C1394       C  0.52594926  0.85025584  0.64182579     0.36100
C1395       C  0.54552576  0.80431649  0.64974422     0.36100
C1396       C  0.58903797  0.93734752  0.63934045    -0.21400
C1397       C  0.55927508  0.92993562  0.65089842    -0.21400
C1398       C  0.64682205  0.76163210  0.63538606    -0.21400
C1399       C  0.62157576  0.75751010  0.65715771    -0.21400
C1400       C  0.66060477  0.88174981  0.56505569    -0.22400
C1401       C  0.66926144  0.85097695  0.56150450    -0.22400
C1402       C  0.50036464  0.83021132  0.64314808    -0.22400
C1403       C  0.51260829  0.80066979  0.64834539    -0.22400
C1404       C  0.62662670  0.91068658  0.60285003    -0.17800
C1405       C  0.52436243  0.88277372  0.64551607    -0.17800
C1406       C  0.56661277  0.78338591  0.66401819    -0.17800
C1407       C  0.65788031  0.80151813  0.59125589    -0.17800
H1408       H  0.60224438  0.95875349  0.64417575     0.15100
H1409       H  0.54526021  0.94427677  0.66691338     0.15100
H1410       H  0.66910824  0.74881301  0.63513460     0.15100
H1411       H  0.62068239  0.74036760  0.67601150     0.15100
H1412       H  0.66927853  0.90124891  0.55098388     0.13400
H1413       H  0.68639621  0.84260392  0.54428225     0.13400
H1414       H  0.47585962  0.83736819  0.64254213     0.13400
H1415       H  0.49905868  0.77943520  0.65299780     0.13400
H1416       H  0.57618434  0.86947980  0.60643914     0.26700
H1417       H  0.59581136  0.81314459  0.61234071     0.26700
N1418       N  0.85901551  0.15649601  0.62368470    -0.36100
N1419       N  0.91097010  0.19124907  0.64332347    -0.56600
N1420       N  0.95871551  0.14610198  0.61439728    -0.36100
N1421       N  0.90456999  0.10783966  0.59988589    -0.56600
C1422       C  0.84443279  0.17759667  0.64290540     0.27500
C1423       C  0.84003971  0.13115174  0.62204438     0.27500
C1424       C  0.97596541  0.16077982  0.63741328     0.27500
C1425       C  0.97368702  0.11904134  0.60539776     0.27500
C1426       C  0.88890156  0.21413318  0.64490508     0.36100
C1427       C  0.93928457  0.20549926  0.64230639     0.36100
C1428       C  0.87608834  0.09528543  0.59164232     0.36100
C1429       C  0.92671121  0.09145678  0.58320262     0.36100
C1430       C  0.81520530  0.16581997  0.65276909    -0.21400
C1431       C  0.81231450  0.13641838  0.63934493    -0.21400
C1432       C  0.00314993  0.14294019  0.64272532    -0.21400
C1433       C  0.00206467  0.11704703  0.62203953    -0.21400
C1434       C  0.90303616  0.24352226  0.64543367    -0.22400
C1435       C  0.93525096  0.23791487  0.64309982    -0.22400
C1436       C  0.88021784  0.07056825  0.57070717    -0.22400
C1437       C  0.91207504  0.06805275  0.56568046    -0.22400
C1438       C  0.85699213  0.20735359  0.65088698    -0.17800
C1439       C  0.84600713  0.10479638  0.60296700    -0.17800
C1440       C  0.96019631  0.09568990  0.58452367    -0.17800
C1441       C  0.96660377  0.18988234  0.65252621    -0.17800
H1442       H  0.79768634  0.17725025  0.66774221     0.15100
H1443       H  0.79206384  0.12079628  0.64197310     0.15100
H1444       H  0.02181708  0.14797658  0.65958338     0.15100
H1445       H  0.01925284  0.09809445  0.62075597     0.15100
H1446       H  0.89154085  0.26615864  0.64843957     0.13400
H1447       H  0.95411949  0.25505962  0.64470209     0.13400
H1448       H  0.86216807  0.05568889  0.56011624     0.13400
H1449       H  0.92332797  0.05083206  0.55064718     0.13400
H1450       H  0.87997329  0.15943698  0.61079264     0.26700
H1451       H  0.93739431  0.15433757  0.60503090     0.26700
N1452       N  0.65297233  0.07428078  0.84560163    -0.36100
N1453       N  0.67346544  0.12668311  0.88728764    -0.56600
N1454       N  0.64117738  0.10179018  0.94299285    -0.36100
N1455       N  0.61734530  0.05286501  0.90090632    -0.56600
C1456       C  0.65851455  0.09786274  0.82512375     0.27500
C1457       C  0.62989302  0.05596906  0.83326925     0.27500
C1458       C  0.65033094  0.13100539  0.95309133     0.27500
C1459       C  0.61410176  0.09228705  0.95858464     0.27500
C1460       C  0.69226476  0.12763012  0.86124609     0.36100
C1461       C  0.69089563  0.13911951  0.91105448     0.36100
C1462       C  0.62047759  0.02752051  0.88186612     0.36100
C1463       C  0.61105923  0.04183892  0.93005561     0.36100
C1464       C  0.63955767  0.09405472  0.79860030    -0.21400
C1465       C  0.62119126  0.06738323  0.80384573    -0.21400
C1466       C  0.62894218  0.14020929  0.97654361    -0.21400
C1467       C  0.60609657  0.11606473  0.97980333    -0.21400
C1468       C  0.72164041  0.14058173  0.86817056    -0.22400
C1469       C  0.72125899  0.14682588  0.89992944    -0.22400
C1470       C  0.61642313  0.00004551  0.89866934    -0.22400
C1471       C  0.61099710  0.00895429  0.92935965    -0.22400
C1472       C  0.68081423  0.12190416  0.83070509    -0.17800
C1473       C  0.61666159  0.03001860  0.84924433    -0.17800
C1474       C  0.59896354  0.06167273  0.95432295    -0.17800
C1475       C  0.67772806  0.14818491  0.94079544    -0.17800
H1476       H  0.63865507  0.10913045  0.77804461     0.15100
H1477       H  0.60318053  0.05792852  0.78819264     0.15100
H1478       H  0.62940216  0.16213136  0.98965074     0.15100
H1479       H  0.58622997  0.11593100  0.99621041     0.15100
H1480       H  0.74121020  0.14518438  0.85208051     0.13400
H1481       H  0.74098563  0.15679688  0.91302233     0.13400
H1482       H  0.61564501  0.97626609  0.88936818     0.13400
H1483       H  0.60711748  0.99250692  0.94839265     0.13400
H1484       H  0.66452536  0.07077909  0.86711213     0.26700
H1485       H  0.65393441  0.08838542  0.92664407     0.26700
C1486       C  0.99352979  0.72997613  0.51849895     0.80700
N1487       N  0.01150777  0.72777024  0.49194083    -0.77600
C1488       C  0.03531125  0.74893777  0.48663853     0.83200
N1489       N  0.04102383  0.77191070  0.50811537    -0.77500
C1490       C  0.02280086  0.77431907  0.53448559     0.83300
N1491       N  0.99936848  0.75312316  0.53960401    -0.79200
N1492       N  0.14273052  0.64156055  0.39834590    -0.36100
N1493       N  0.15250134  0.58890817  0.35426346    -0.56600
N1494       N  0.13105726  0.62773255  0.30161154    -0.36100
N1495       N  0.11799924  0.67678617  0.34753620    -0.56600
C1496       C  0.14210438  0.61641504  0.41760783     0.27500
C1497       C  0.12687511  0.66490750  0.41327062     0.27500
C1498       C  0.13657334  0.59978797  0.28689253     0.27500
C1499       C  0.10717111  0.64356640  0.28655188     0.27500
C1500       C  0.16694439  0.57873124  0.38090689     0.36100
C1501       C  0.16748655  0.57415386  0.33005456     0.36100
C1502       C  0.12440038  0.70007166  0.36806603     0.36100
C1503       C  0.11123512  0.69054390  0.32000233     0.36100
C1504       C  0.12642077  0.62383366  0.44550878    -0.21400
C1505       C  0.11645577  0.65458624  0.44267523    -0.21400
C1506       C  0.11670468  0.59806578  0.26077421    -0.21400
C1507       C  0.09764302  0.62523149  0.26101254    -0.21400
C1508       C  0.19070363  0.55725405  0.37374127    -0.22400
C1509       C  0.19111698  0.55434913  0.34164550    -0.22400
C1510       C  0.12199818  0.72910271  0.35351131    -0.22400
C1511       C  0.11365425  0.72295918  0.32274274    -0.22400
C1512       C  0.15878633  0.58847091  0.41174063    -0.17800
C1513       C  0.12175781  0.69505958  0.40047372    -0.17800
C1514       C  0.09556639  0.67439871  0.29575961    -0.17800
C1515       C  0.15893522  0.57650133  0.29778215    -0.17800
H1516       H  0.12285450  0.60870673  0.46577012     0.15100
H1517       H  0.10324751  0.66780747  0.46027882     0.15100
H1518       H  0.11525680  0.57882873  0.24399584     0.15100
H1519       H  0.07941132  0.63097936  0.24397525     0.15100
H1520       H  0.20653861  0.54525371  0.38982319     0.13400
H1521       H  0.20710577  0.53916892  0.32846317     0.13400
H1522       H  0.12319907  0.75200651  0.36474145     0.13400
H1523       H  0.10784497  0.74004504  0.30483599     0.13400
H1524       H  0.15477846  0.64313996  0.37680601     0.26700
H1525       H  0.14403815  0.63557077  0.32095487     0.26700
C1526       C  0.26900049  0.73360727  0.71298057     0.80700
N1527       N  0.25573181  0.70980411  0.73018338    -0.77600
C1528       C  0.23342635  0.71652064  0.75251474     0.83200
N1529       N  0.22437238  0.74669214  0.75723531    -0.77500
C1530       C  0.23679115  0.77048177  0.74009551     0.83300
N1531       N  0.25908464  0.76368784  0.71788705    -0.79200
C1532       C  0.26560431  0.49536695  0.53384885     0.80700
N1533       N  0.24073793  0.50514529  0.51581682    -0.77600
C1534       C  0.24534354  0.52656283  0.49279002     0.83200
N1535       N  0.27478085  0.53825238  0.48779930    -0.77500
C1536       C  0.29990898  0.52925581  0.50538823     0.83300
N1537       N  0.29522909  0.50788085  0.52902509    -0.79200
N1538       N  0.36833731  0.68094512  0.56164918    -0.36100
N1539       N  0.40746616  0.69008039  0.62011871    -0.56600
N1540       N  0.46049108  0.65073308  0.60088807    -0.36100
N1541       N  0.42067599  0.63950767  0.54568139    -0.56600
C1542       C  0.34701684  0.68972351  0.58371188     0.27500
C1543       C  0.35421203  0.65865168  0.54372780     0.27500
C1544       C  0.46615155  0.65392496  0.63260542     0.27500
C1545       C  0.47151306  0.62230862  0.58991194     0.27500
C1546       C  0.38611061  0.71391477  0.61872172     0.36100
C1547       C  0.43120908  0.70025748  0.63917889     0.36100
C1548       C  0.40341668  0.64310619  0.51929403     0.36100
C1549       C  0.44943830  0.62931934  0.53662649     0.36100
C1550       C  0.31806672  0.67472719  0.57851424    -0.21400
C1551       C  0.32276951  0.65463665  0.55320895    -0.21400
C1552       C  0.48271341  0.62719374  0.64195072    -0.21400
C1553       C  0.48576113  0.60726901  0.61532555    -0.21400
C1554       C  0.39605224  0.73901311  0.63686058    -0.22400
C1555       C  0.42506067  0.73079788  0.64897373    -0.22400
C1556       C  0.42124500  0.63561529  0.49287758    -0.22400
C1557       C  0.45094766  0.62764450  0.50374511    -0.22400
C1558       C  0.35447851  0.70948945  0.60917077    -0.17800
C1559       C  0.37055495  0.64039688  0.52115618    -0.17800
C1560       C  0.46781578  0.61121299  0.55737826    -0.17800
C1561       C  0.45515510  0.68044662  0.65191350    -0.17800
H1562       H  0.29644851  0.67680762  0.59243741     0.15100
H1563       H  0.30553279  0.63817873  0.54367598     0.15100
H1564       H  0.49081063  0.62201625  0.66561026     0.15100
H1565       H  0.49689043  0.58429345  0.61491167     0.15100
H1566       H  0.38267052  0.76009389  0.64226291     0.13400
H1567       H  0.43931402  0.74490989  0.66469572     0.13400
H1568       H  0.41264737  0.63294827  0.46896361     0.13400
H1569       H  0.46996210  0.61762053  0.48954360     0.13400
H1570       H  0.39189138  0.68884828  0.56007308     0.26700
H1571       H  0.44954602  0.66776105  0.58700637     0.26700
C1572       C  0.00278736  0.52360746  0.76277798     0.80700
N1573       N  0.98195056  0.52798947  0.73895403    -0.77600
C1574       C  0.98642727  0.51351123  0.71073490     0.83200
N1575       N  0.01267680  0.49550979  0.70596362    -0.77500
C1576       C  0.03371619  0.49105024  0.72987537     0.83300
N1577       N  0.02870744  0.50513097  0.75815872    -0.79200
N1578       N  0.17398150  0.39731271  0.65311281    -0.36100
N1579       N  0.11939383  0.35920237  0.66954086    -0.56600
N1580       N  0.13704460  0.31200222  0.62074282    -0.36100
N1581       N  0.19569127  0.35056855  0.60847305    -0.56600
C1582       C  0.16294834  0.41265948  0.67879529     0.27500
C1583       C  0.20395774  0.40727696  0.64776226     0.27500
C1584       C  0.11612833  0.29569534  0.63956823     0.27500
C1585       C  0.15621288  0.29155743  0.60459899     0.27500
C1586       C  0.10997698  0.38863865  0.67686425     0.36100
C1587       C  0.09267918  0.34336817  0.66190133     0.36100
C1588       C  0.21267375  0.37618993  0.59928764     0.36100
C1589       C  0.19338717  0.33190429  0.58267318     0.36100
C1590       C  0.18637311  0.43246512  0.69054581    -0.21400
C1591       C  0.21251211  0.42903925  0.67078247    -0.21400
C1592       C  0.12186450  0.26378191  0.63472573    -0.21400
C1593       C  0.14682396  0.26122045  0.61261071    -0.21400
C1594       C  0.07716778  0.39155934  0.67401669    -0.22400
C1595       C  0.06620721  0.36279868  0.66411421    -0.22400
C1596       C  0.22138463  0.37353396  0.56774813    -0.22400
C1597       C  0.20939192  0.34545070  0.55731613    -0.22400
C1598       C  0.13079135  0.41207636  0.68800790    -0.17800
C1599       C  0.22010540  0.40212425  0.61900741    -0.17800
C1600       C  0.18116688  0.30089523  0.58278436    -0.17800
C1601       C  0.09204276  0.31044977  0.65949646    -0.17800
H1602       H  0.18419793  0.44882314  0.71010762     0.15100
H1603       H  0.23444269  0.44248615  0.67188328     0.15100
H1604       H  0.10937731  0.24427785  0.64556910     0.15100
H1605       H  0.15701739  0.23951494  0.60371810     0.15100
H1606       H  0.06265912  0.41212551  0.67869667     0.13400
H1607       H  0.04151733  0.35651071  0.66002914     0.13400
H1608       H  0.23479576  0.39004080  0.55349171     0.13400
H1609       H  0.21229950  0.33590733  0.53372122     0.13400
H1610       H  0.16027422  0.38388731  0.63768879     0.26700
H1611       H  0.13783231  0.33639005  0.61825972     0.26700
N1612       N  0.88464213  0.60022926  0.59214723    -0.36100
N1613       N  0.84152391  0.65109059  0.57900726    -0.56600
N1614       N  0.79330015  0.62434385  0.62150998    -0.36100
N1615       N  0.83805031  0.57055582  0.63189646    -0.56600
C1616       C  0.90030049  0.61472011  0.56858749     0.27500
C1617       C  0.89822837  0.57189026  0.59596950     0.27500
C1618       C  0.77523918  0.64456973  0.60373164     0.27500
C1619       C  0.77416700  0.60288647  0.63647700     0.27500
C1620       C  0.86989875  0.66413462  0.57141211     0.36100
C1621       C  0.82100398  0.67515844  0.58294173     0.36100
C1622       C  0.86483490  0.55498674  0.64058120     0.36100
C1623       C  0.81759165  0.56759228  0.65639593     0.36100
C1624       C  0.92395864  0.59516735  0.55666877    -0.21400
C1625       C  0.92274066  0.56791948  0.57427374    -0.21400
C1626       C  0.74351535  0.63605611  0.60816589    -0.21400
C1627       C  0.74283054  0.61018219  0.62887532    -0.21400
C1628       C  0.86758077  0.69663891  0.57069390    -0.22400
C1629       C  0.83649686  0.70366413  0.57778483    -0.22400
C1630       C  0.86108453  0.54155640  0.67009066    -0.22400
C1631       C  0.83124017  0.54937455  0.67993881    -0.22400
C1632       C  0.89674032  0.64672359  0.56179138    -0.17800
C1633       C  0.89319711  0.55333180  0.62270499    -0.17800
C1634       C  0.78541773  0.57757011  0.65669720    -0.17800
C1635       C  0.78779549  0.67094494  0.58537350    -0.17800
H1636       H  0.94143855  0.60076267  0.53863070     0.15100
H1637       H  0.93917122  0.54832887  0.57273428     0.15100
H1638       H  0.72296878  0.64749672  0.59795434     0.15100
H1639       H  0.72168571  0.59797704  0.63706797     0.15100
H1640       H  0.88603733  0.71345411  0.56462207     0.13400
H1641       H  0.82654215  0.72712340  0.57842041     0.13400
H1642       H  0.87800084  0.52755760  0.68321126     0.13400
H1643       H  0.82026326  0.54186041  0.70176676     0.13400
H1644       H  0.86856154  0.61083239  0.60755788     0.26700
H1645       H  0.81789330  0.62547890  0.62426765     0.26700
N1646       N  0.09969669  0.86488680  0.67591372    -0.36100
N1647       N  0.07446388  0.91099425  0.62930020    -0.56600
N1648       N  0.11466171  0.96204502  0.64917220    -0.36100
N1649       N  0.14232440  0.91479547  0.69234004    -0.56600
C1650       C  0.08697379  0.84656458  0.65345392     0.27500
C1651       C  0.12443636  0.84901832  0.68816182     0.27500
C1652       C  0.10441063  0.97285684  0.62050038     0.27500
C1653       C  0.14332683  0.97531031  0.65697474     0.27500
C1654       C  0.05281053  0.88760880  0.63199678     0.36100
C1655       C  0.05878935  0.93589853  0.61718231     0.36100
C1656       C  0.14516843  0.89399127  0.71615814     0.36100
C1657       C  0.15024253  0.94285379  0.70468874     0.36100
C1658       C  0.10284901  0.81790961  0.65206171    -0.21400
C1659       C  0.12677538  0.81945914  0.67434568    -0.21400
C1660       C  0.12689862  0.99467187  0.61009608    -0.21400
C1661       C  0.15135885  0.99608905  0.63287425    -0.21400
C1662       C  0.02330852  0.89725277  0.62170320    -0.22400
C1663       C  0.02683261  0.92784492  0.61250155    -0.22400
C1664       C  0.15500667  0.90836291  0.74354465    -0.22400
C1665       C  0.15695809  0.93972713  0.73667089    -0.22400
C1666       C  0.06158565  0.85606360  0.63454741    -0.17800
C1667       C  0.14450195  0.86172489  0.71119336    -0.17800
C1668       C  0.16073385  0.96801498  0.68575612    -0.17800
C1669       C  0.07469735  0.96305305  0.60548304    -0.17800
H1670       H  0.09805875  0.79829588  0.63636479     0.15100
H1671       H  0.14418874  0.80135514  0.67929297     0.15100
H1672       H  0.12603467  0.00793327  0.58832123     0.15100
H1673       H  0.17257824  0.01059913  0.63166303     0.15100
H1674       H  0.00200587  0.88299772  0.61929389     0.13400
H1675       H  0.00765670  0.94143392  0.60259593     0.13400
H1676       H  0.16142196  0.89709451  0.76546168     0.13400
H1677       H  0.16585025  0.95788970  0.75228205     0.13400
H1678       H  0.09169729  0.88725321  0.68247629     0.26700
H1679       H  0.10205505  0.94660251  0.66367067     0.26700
N1680       N  0.10783287  0.62805830  0.85297913    -0.36100
N1681       N  0.15642585  0.64799675  0.89799542    -0.56600
N1682       N  0.11312223  0.63398630  0.95112840    -0.36100
N1683       N  0.06805213  0.61037854  0.90463657    -0.56600
C1684       C  0.13408693  0.62720371  0.83463294     0.27500
C1685       C  0.08547177  0.61027294  0.83863628     0.27500
C1686       C  0.13993212  0.64308473  0.96670726     0.27500
C1687       C  0.09566514  0.61336122  0.96921902     0.27500
C1688       C  0.16962955  0.65724272  0.87016583     0.36100
C1689       C  0.17030394  0.66582423  0.92070206     0.36100
C1690       C  0.04643459  0.61259214  0.88151563     0.36100
C1691       C  0.05161890  0.61079662  0.93179583     0.36100
C1692       C  0.12834781  0.60923403  0.80784522    -0.21400
C1693       C  0.09754609  0.59819019  0.81051488    -0.21400
C1694       C  0.13920278  0.62882937  0.99624180    -0.21400
C1695       C  0.11186903  0.60955374  0.99750929    -0.21400
C1696       C  0.19236248  0.68033787  0.87520726    -0.22400
C1697       C  0.19288829  0.68571041  0.90702236    -0.22400
C1698       C  0.01582402  0.61416480  0.89375371    -0.22400
C1699       C  0.01915113  0.61335979  0.92595683    -0.22400
C1700       C  0.16164811  0.64507516  0.84009520    -0.17800
C1701       C  0.05425615  0.60597831  0.85026014    -0.17800
C1702       C  0.06508744  0.60002630  0.95990103    -0.17800
C1703       C  0.16443259  0.66358464  0.95378724    -0.17800
H1704       H  0.14457112  0.60489937  0.78834234     0.15100
H1705       H  0.08539048  0.58337354  0.79352590     0.15100
H1706       H  0.15697214  0.63122297  0.01456858     0.15100
H1707       H  0.10448816  0.59515344  0.01729043     0.15100
H1708       H  0.20694974  0.69231263  0.85780855     0.13400
H1709       H  0.20857960  0.70227899  0.91869373     0.13400
H1710       H  0.99360193  0.61394100  0.88081389     0.13400
H1711       H  0.99997911  0.61221757  0.94312316     0.13400
H1712       H  0.10467457  0.64169526  0.87322182     0.26700
H1713       H  0.10690857  0.64260064  0.92906604     0.26700
C1714       C  0.79815162  0.25381288  0.28507524     0.80700
N1715       N  0.77368502  0.27399963  0.28906011    -0.77600
C1716       C  0.76849386  0.29806794  0.26908663     0.83200
N1717       N  0.78861773  0.30213777  0.24435033    -0.77500
C1718       C  0.81366899  0.28220177  0.23980839     0.83300
N1719       N  0.81834208  0.25787279  0.26016318    -0.79200
N1720       N  0.64741313  0.42630929  0.32956106    -0.36100
N1721       N  0.59410550  0.44952523  0.36824545    -0.56600
N1722       N  0.54976045  0.40128555  0.34427706    -0.36100
N1723       N  0.60470463  0.37424293  0.31075702    -0.56600
C1724       C  0.66225889  0.44560223  0.35030887     0.27500
C1725       C  0.66901864  0.40475740  0.32037817     0.27500
C1726       C  0.53298089  0.41375053  0.36921559     0.27500
C1727       C  0.53724874  0.37277400  0.33591995     0.27500
C1728       C  0.61452358  0.47379127  0.36477452     0.36100
C1729       C  0.56497369  0.46228505  0.37129552     0.36100
C1730       C  0.63203368  0.36580544  0.29563130     0.36100
C1731       C  0.58216558  0.35332191  0.30127725     0.36100
C1732       C  0.69396796  0.43724656  0.35325220    -0.21400
C1733       C  0.69838100  0.41148677  0.33401668    -0.21400
C1734       C  0.50873919  0.39269589  0.37667372    -0.21400
C1735       C  0.51110857  0.36724998  0.35547777    -0.21400
C1736       C  0.59896792  0.50225154  0.36616661    -0.22400
C1737       C  0.56725902  0.49505650  0.36934785    -0.22400
C1738       C  0.62695261  0.33940774  0.27711037    -0.22400
C1739       C  0.59584287  0.33123544  0.28107484    -0.22400
C1740       C  0.64721630  0.46989984  0.36715195    -0.17800
C1741       C  0.66272114  0.37852317  0.30104962    -0.17800
C1742       C  0.54976057  0.35207561  0.31147714    -0.17800
C1743       C  0.53891010  0.44459232  0.38294537    -0.17800
H1744       H  0.71182421  0.44826504  0.36804339     0.15100
H1745       H  0.72042809  0.39849958  0.33134108     0.15100
H1746       H  0.49088011  0.39556110  0.39499376     0.15100
H1747       H  0.49584561  0.34666178  0.35511880     0.15100
H1748       H  0.60944410  0.52556528  0.36533992     0.13400
H1749       H  0.54844173  0.51239051  0.37035649     0.13400
H1750       H  0.64421084  0.32656410  0.26300749     0.13400
H1751       H  0.58488159  0.31058459  0.27067391     0.13400
H1752       H  0.62371946  0.42749366  0.32240472     0.26700
H1753       H  0.56849803  0.41234149  0.33257140     0.26700
C1754       C  0.70529626  0.51049283  0.48401736     0.80700
N1755       N  0.71027758  0.48818578  0.50647969    -0.77600
C1756       C  0.73057663  0.49363158  0.53078934     0.83200
N1757       N  0.74627960  0.52148775  0.53224060    -0.77500
C1758       C  0.74222175  0.54378079  0.50986996     0.83300
N1759       N  0.72178846  0.53796318  0.48573560    -0.79200
C1760       C  0.96449582  0.46836196  0.24535263     0.80700
N1761       N  0.95134736  0.49015494  0.26481013    -0.77600
C1762       C  0.96047110  0.49196391  0.29555650     0.83200
N1763       N  0.98236437  0.47117918  0.30671634    -0.77500
C1764       C  0.99479276  0.44886932  0.28728359     0.83300
N1765       N  0.98600814  0.44787016  0.25674894    -0.79200
C1766       C  0.02912916  0.25605060  0.48730229     0.80700
N1767       N  0.00891282  0.23158908  0.49213127    -0.77600
C1768       C  0.98069682  0.23562815  0.50730876     0.83200
N1769       N  0.97275225  0.26477981  0.51741489    -0.77500
C1770       C  0.99263730  0.28963103  0.51307613     0.83300
N1771       N  0.02088725  0.28540184  0.49776767    -0.79200
N1772       N  0.10769545  0.31222943  0.34754106    -0.36100
N1773       N  0.14617948  0.36898851  0.32730286    -0.56600
N1774       N  0.20333587  0.34982639  0.35803440    -0.36100
N1775       N  0.16348566  0.29656297  0.38153201    -0.56600
C1776       C  0.08541956  0.33418391  0.34185666     0.27500
C1777       C  0.09588537  0.29333732  0.37032989     0.27500
C1778       C  0.21067049  0.38010988  0.34968601     0.27500
C1779       C  0.21772880  0.34224054  0.38590289     0.27500
C1780       C  0.11975990  0.36767642  0.30929555     0.36100
C1781       C  0.16832682  0.38432848  0.30985864     0.36100
C1782       C  0.14672339  0.26947760  0.38244858     0.36100
C1783       C  0.19358633  0.28923241  0.38885507     0.36100
C1784       C  0.05828051  0.32832337  0.35969675    -0.21400
C1785       C  0.06492492  0.30236839  0.37788040    -0.21400
C1786       C  0.23144985  0.39188060  0.37235084    -0.21400
C1787       C  0.23554216  0.36827593  0.39528879    -0.21400
C1788       C  0.12473842  0.38214872  0.28055696    -0.22400
C1789       C  0.15593441  0.39151765  0.28031153    -0.22400
C1790       C  0.16611601  0.24444540  0.39016677    -0.22400
C1791       C  0.19619621  0.25684166  0.39351442    -0.22400
C1792       C  0.08980783  0.35942487  0.32118563    -0.17800
C1793       C  0.11365732  0.26988798  0.38573035    -0.17800
C1794       C  0.21425598  0.31201635  0.40162288    -0.17800
C1795       C  0.19716842  0.39628307  0.32260032    -0.17800
H1796       H  0.03646497  0.34190859  0.36033567     0.15100
H1797       H  0.04919104  0.29219900  0.39544763     0.15100
H1798       H  0.24162766  0.41531698  0.37300913     0.15100
H1799       H  0.24984591  0.37020627  0.41643085     0.15100
H1800       H  0.10746297  0.38591629  0.26200904     0.13400
H1801       H  0.16763956  0.40341477  0.26091718     0.13400
H1802       H  0.15885615  0.22048132  0.39519700     0.13400
H1803       H  0.21686699  0.24417795  0.40195522     0.13400
H1804       H  0.13009671  0.31085334  0.33678200     0.26700
H1805       H  0.18910497  0.33458938  0.34483152     0.26700
N1806       N  0.86294696  0.38108217  0.59405997    -0.36100
N1807       N  0.82196167  0.39262145  0.64537668    -0.56600
N1808       N  0.86552239  0.36775095  0.69332392    -0.36100
N1809       N  0.91003224  0.35939747  0.64106638    -0.56600
C1810       C  0.84093477  0.40039602  0.58114094     0.27500
C1811       C  0.89063161  0.38535788  0.57839452     0.27500
C1812       C  0.84829281  0.38925812  0.71031284     0.27500
C1813       C  0.89293036  0.36095544  0.70879060     0.27500
C1814       C  0.80081922  0.39153176  0.62173959     0.36100
C1815       C  0.80521177  0.39029101  0.67218287     0.36100
C1816       C  0.92353691  0.35148927  0.61290049     0.36100
C1817       C  0.92320140  0.34002936  0.66290981     0.36100
C1818       C  0.85464067  0.41691649  0.55635045    -0.21400
C1819       C  0.88618161  0.40730493  0.55454619    -0.21400
C1820       C  0.86508052  0.39594173  0.73775851    -0.21400
C1821       C  0.89285851  0.37750812  0.73714424    -0.21400
C1822       C  0.77008977  0.38821760  0.63346618    -0.22400
C1823       C  0.77298450  0.38725977  0.66578085    -0.22400
C1824       C  0.94484550  0.32689095  0.61705321    -0.22400
C1825       C  0.94528107  0.32041950  0.64857440    -0.22400
C1826       C  0.80898060  0.40258960  0.59179566    -0.17800
C1827       C  0.91851669  0.36752507  0.58383529    -0.17800
C1828       C  0.91781790  0.34136883  0.69604488    -0.17800
C1829       C  0.81789641  0.40157739  0.70036688    -0.17800
H1830       H  0.84316028  0.43392959  0.54119406     0.15100
H1831       H  0.90373747  0.41524959  0.53750139     0.15100
H1832       H  0.85807805  0.41211778  0.75632780     0.15100
H1833       H  0.91151245  0.37754282  0.75473864     0.15100
H1834       H  0.74803304  0.38913550  0.62029619     0.13400
H1835       H  0.75376490  0.38709877  0.68287871     0.13400
H1836       H  0.95897888  0.31472654  0.59944699     0.13400
H1837       H  0.96098886  0.30383613  0.65987573     0.13400
H1838       H  0.85899189  0.36454488  0.61180970     0.26700
H1839       H  0.85896620  0.35755335  0.67188187     0.26700
N1840       N  0.90501399  0.36097772  0.11864674    -0.36100
N1841       N  0.90213708  0.41330820  0.07913067    -0.56600
N1842       N  0.86178034  0.37801684  0.03397116    -0.36100
N1843       N  0.86856722  0.32223268  0.07505303    -0.56600
C1844       C  0.92549543  0.38079036  0.13305448     0.27500
C1845       C  0.91059003  0.33186131  0.12952480     0.27500
C1846       C  0.87671951  0.40005975  0.01550277     0.27500
C1847       C  0.85020485  0.35432036  0.01557208     0.27500
C1848       C  0.90672288  0.42817289  0.10667078     0.36100
C1849       C  0.88886513  0.43422393  0.05976782     0.36100
C1850       C  0.86703892  0.30464712  0.10179762     0.36100
C1851       C  0.84279125  0.31397525  0.05770264     0.36100
C1852       C  0.94507259  0.36391343  0.15316870    -0.21400
C1853       C  0.93550926  0.33282759  0.15096741    -0.21400
C1854       C  0.87428010  0.39018023  0.98430393    -0.21400
C1855       C  0.85690381  0.36181173  0.98428884    -0.21400
C1856       C  0.89712595  0.45933093  0.10478898    -0.22400
C1857       C  0.88565145  0.46312030  0.07465878    -0.22400
C1858       C  0.84090373  0.28472111  0.10091321    -0.22400
C1859       C  0.82584277  0.29034154  0.07305487    -0.22400
C1860       C  0.92238997  0.41378558  0.13173285    -0.17800
C1861       C  0.88731132  0.30813778  0.12823056    -0.17800
C1862       C  0.83475800  0.32632660  0.02759581    -0.17800
C1863       C  0.88996237  0.42927052  0.02746948    -0.17800
H1864       H  0.96267325  0.37315375  0.16937533     0.15100
H1865       H  0.94375276  0.31366478  0.16561908     0.15100
H1866       H  0.88315370  0.40249851  0.96370531     0.15100
H1867       H  0.85088645  0.34784243  0.96371890     0.15100
H1868       H  0.89903982  0.47748888  0.12268722     0.13400
H1869       H  0.87705034  0.48469192  0.06425199     0.13400
H1870       H  0.83281272  0.26827748  0.11865398     0.13400
H1871       H  0.80431859  0.27861843  0.06537772     0.13400
H1872       H  0.88492820  0.36756057  0.10595558     0.26700
H1873       H  0.85872461  0.37919168  0.05838964     0.26700
N1874       N  0.88704504  0.60920468  0.42289821    -0.36100
N1875       N  0.85696197  0.66420209  0.44564364    -0.56600
N1876       N  0.88369988  0.70587567  0.39648102    -0.36100
N1877       N  0.91290450  0.64984896  0.37109204    -0.56600
C1878       C  0.86417881  0.59677395  0.44179032     0.27500
C1879       C  0.89310522  0.58786460  0.40015685     0.27500
C1880       C  0.85714006  0.72221094  0.40588342     0.27500
C1881       C  0.89429823  0.71679021  0.36796129     0.27500
C1882       C  0.85315857  0.64509399  0.47063911     0.36100
C1883       C  0.85034572  0.69331192  0.45597171     0.36100
C1884       C  0.92677122  0.62161573  0.36520828     0.36100
C1885       C  0.92943308  0.67138952  0.35388310     0.36100
C1886       C  0.85653439  0.56663506  0.43169436    -0.21400
C1887       C  0.87504256  0.56089281  0.40534342    -0.21400
C1888       C  0.85099496  0.74466769  0.38291374    -0.21400
C1889       C  0.87467192  0.74168903  0.35945756    -0.21400
C1890       C  0.84376289  0.66185789  0.49696567    -0.22400
C1891       C  0.84337561  0.69276863  0.48819083    -0.22400
C1892       C  0.95183663  0.62509090  0.34412197    -0.22400
C1893       C  0.95363113  0.65639526  0.33701973    -0.22400
C1894       C  0.84971791  0.61272704  0.46723351    -0.17800
C1895       C  0.91495663  0.59209966  0.37527987    -0.17800
C1896       C  0.92079358  0.70359196  0.35007489    -0.17800
C1897       C  0.83979427  0.71667445  0.43515065    -0.17800
H1898       H  0.83915699  0.55071335  0.44192081     0.15100
H1899       H  0.87475161  0.53957945  0.39123356     0.15100
H1900       H  0.83172164  0.76158881  0.38309196     0.15100
H1901       H  0.87645825  0.75552013  0.33808252     0.15100
H1902       H  0.83525725  0.65229110  0.51897937     0.13400
H1903       H  0.83469674  0.71206503  0.50264124     0.13400
H1904       H  0.96675680  0.60676939  0.33412995     0.13400
H1905       H  0.97014621  0.66644423  0.32011259     0.13400
H1906       H  0.89834597  0.63094719  0.42534850     0.26700
H1907       H  0.89477852  0.68822124  0.40939019     0.26700
N1908       N  0.84513682  0.14854169  0.42851873    -0.36100
N1909       N  0.82630127  0.10595642  0.37522013    -0.56600
N1910       N  0.86396295  0.05311584  0.39654350    -0.36100
N1911       N  0.88738209  0.09792069  0.44484738    -0.56600
C1912       C  0.83601293  0.16862171  0.40586252     0.27500
C1913       C  0.86744508  0.16344963  0.44581875     0.27500
C1914       C  0.85454617  0.04303424  0.36729982     0.27500
C1915       C  0.89247121  0.03974775  0.40460768     0.27500
C1916       C  0.80512511  0.12978583  0.37666655     0.36100
C1917       C  0.81042613  0.08124586  0.36280832     0.36100
C1918       C  0.88584849  0.11600008  0.47114939     0.36100
C1919       C  0.89662098  0.06923191  0.45459436     0.36100
C1920       C  0.85145637  0.19731289  0.40953779    -0.21400
C1921       C  0.87151220  0.19402831  0.43501835    -0.21400
C1922       C  0.87732000  0.02158663  0.35675297    -0.21400
C1923       C  0.90117963  0.01968782  0.38004467    -0.21400
C1924       C  0.77580075  0.12061792  0.36519159    -0.22400
C1925       C  0.77878039  0.08941510  0.35734562    -0.22400
C1926       C  0.89416962  0.09912414  0.49746003    -0.22400
C1927       C  0.90022035  0.06909504  0.48711036    -0.22400
C1928       C  0.81433909  0.16085417  0.38206536    -0.17800
C1929       C  0.88468427  0.14883016  0.46996759    -0.17800
C1930       C  0.90915576  0.04615852  0.43403026    -0.17800
C1931       C  0.82591028  0.05395961  0.35122717    -0.17800
H1932       H  0.84908262  0.21809656  0.39498760     0.15100
H1933       H  0.88794378  0.21170171  0.44368468     0.15100
H1934       H  0.87721838  0.00912009  0.33440914     0.15100
H1935       H  0.92245719  0.00533364  0.37886862     0.15100
H1936       H  0.75480360  0.13507746  0.36224171     0.13400
H1937       H  0.76010534  0.07484910  0.34739593     0.13400
H1938       H  0.89729231  0.10853416  0.52095483     0.13400
H1939       H  0.90862117  0.04961462  0.50105906     0.13400
H1940       H  0.83678692  0.12558219  0.43170571     0.26700
H1941       H  0.85088903  0.06834820  0.41089979     0.26700
O1942       O  0.02860196  0.30020308  0.81211224    -0.78000
C1943       C  0.94956157  0.23574466  0.80976811     0.83100
O1944       O  0.06854439  0.20791307  0.73965644    -0.79100
O1945       O  0.96166373  0.21928895  0.70090399    -0.80600
O1946       O  0.96987550  0.33168623  0.71769271    -0.80400
O1947       O  0.02465853  0.33780082  0.77601995    -0.79000
Zn1948     Zn  0.01750161  0.25847302  0.78851021     1.55700
O1949       O  0.93330339  0.29376163  0.72300426    -0.80400
Cd1950     Cd  0.01277544  0.31110955  0.73459150     1.59700
Cd1951     Cd  0.03684840  0.23706712  0.71450413     1.59600
O1952       O  0.04997680  0.31219829  0.69933976    -0.80400
O1953       O  0.00680827  0.26479301  0.74412122    -1.90900
Cd1954     Cd  0.95997147  0.25352719  0.73861939     1.59900
O1955       O  0.06620095  0.26460604  0.68413699    -0.80300
O1956       O  0.93736693  0.23756193  0.78203413    -0.79000
C1957       C  0.07380574  0.20900888  0.76925941     0.83500
C1958       C  0.02984563  0.32938465  0.80462490     0.83200
O1959       O  0.97879760  0.24318524  0.81382185    -0.77900
C1960       C  0.94093849  0.32208348  0.71540012     0.84000
O1961       O  0.05608906  0.22631505  0.78749383    -0.78000
C1962       C  0.06795872  0.29451264  0.68177770     0.84100
C1963       C  0.98101153  0.20534970  0.68134929     0.84500
O1964       O  0.01109403  0.20837159  0.68365656    -0.80500
C1965       C  0.00214928  0.24723969  0.95590758     0.80700
N1966       N  0.98882863  0.21892582  0.96380780    -0.77600
C1967       C  0.97173818  0.21596576  0.99096612     0.83200
N1968       N  0.96857287  0.24100180  0.01048419    -0.77500
C1969       C  0.98201798  0.26897068  0.00351666     0.83300
N1970       N  0.99922809  0.27188467  0.97643818    -0.79200
N1971       N  0.04850008  0.40265173  0.10015162    -0.36100
N1972       N  0.09771804  0.44525727  0.12595748    -0.56600
N1973       N  0.10759268  0.39771704  0.17553866    -0.36100
N1974       N  0.05976984  0.35655529  0.14753765    -0.56600
C1975       C  0.05804862  0.42206844  0.07685239     0.27500
C1976       C  0.04074030  0.37508206  0.08617091     0.27500
C1977       C  0.13386173  0.41619875  0.17871290     0.27500
C1978       C  0.11492385  0.36925418  0.18823813     0.27500
C1979       C  0.08200223  0.46538158  0.10614975     0.36100
C1980       C  0.11664456  0.46216943  0.14602025     0.36100
C1981       C  0.03478102  0.34266168  0.13321165     0.36100
C1982       C  0.06611850  0.33950444  0.17340508     0.36100
C1983       C  0.05777186  0.40640162  0.04804775    -0.21400
C1984       C  0.04657296  0.37664139  0.05391116    -0.21400
C1985       C  0.15767954  0.39935930  0.19383121    -0.21400
C1986       C  0.14584667  0.37000419  0.19975364    -0.21400
C1987       C  0.09130148  0.49588768  0.11367767    -0.22400
C1988       C  0.11336076  0.49382560  0.13846675    -0.22400
C1989       C  0.02433200  0.31702075  0.15061294    -0.22400
C1990       C  0.04464505  0.31474149  0.17603051    -0.22400
C1991       C  0.06147941  0.45472312  0.08068221    -0.17800
C1992       C  0.02668916  0.34935351  0.10176561    -0.17800
C1993       C  0.09489917  0.34226603  0.18998208    -0.17800
C1994       C  0.13686769  0.44837760  0.17010475    -0.17800
H1995       H  0.06375247  0.41596796  0.02507383     0.15100
H1996       H  0.04269959  0.35842532  0.03637330     0.15100
H1997       H  0.18142303  0.40728443  0.19996063     0.15100
H1998       H  0.15880853  0.35135716  0.21138312     0.15100
H1999       H  0.08375350  0.51730776  0.10216089     0.13400
H2000       H  0.12541199  0.51340842  0.14971665     0.13400
H2001       H  0.00586811  0.30032954  0.14426920     0.13400
H2002       H  0.04487624  0.29602545  0.19334511     0.13400
H2003       H  0.04472236  0.40892566  0.12374331     0.26700
H2004       H  0.08571867  0.40455177  0.16627198     0.26700
C2005       C  0.98113606  0.01918830  0.24899198     0.80700
N2006       N  0.00747224  0.02683383  0.26566932    -0.77600
C2007       C  0.03165855  0.00592153  0.26872573     0.83200
N2008       N  0.02961139  0.97751263  0.25413497    -0.77500
C2009       C  0.00338383  0.96970616  0.23699130     0.83300
N2010       N  0.97941378  0.99077057  0.23459272    -0.79200
C2011       C  0.18547244  0.25124050  0.23062916     0.80700
N2012       N  0.20959517  0.24458195  0.20990757    -0.77600
C2013       C  0.23442462  0.22635311  0.21894612     0.83200
N2014       N  0.23504384  0.21471888  0.24852258    -0.77500
C2015       C  0.21156436  0.22119419  0.26959413     0.83300
N2016       N  0.18655678  0.23935978  0.26050754    -0.79200
N2017       N  0.17546994  0.08163705  0.36376197    -0.36100
N2018       N  0.12218086  0.06563313  0.40562876    -0.56600
N2019       N  0.14164155  0.11278628  0.45503788    -0.36100
N2020       N  0.20537234  0.14955780  0.41230526    -0.56600
C2021       C  0.15794180  0.06594042  0.34256248     0.27500
C2022       C  0.19592910  0.10020204  0.34766156     0.27500
C2023       C  0.11629109  0.09939611  0.47028012     0.27500
C2024       C  0.15502174  0.13624442  0.47322780     0.27500
C2025       C  0.11595508  0.04657648  0.38042144     0.36100
C2026       C  0.10042523  0.05849171  0.42833644     0.36100
C2027       C  0.21591514  0.12540617  0.39456974     0.36100
C2028       C  0.20261291  0.13767591  0.44155912     0.36100
C2029       C  0.16884161  0.07296101  0.31224963    -0.21400
C2030       C  0.19252144  0.09529968  0.31552957    -0.21400
C2031       C  0.11307948  0.11528548  0.49902183    -0.21400
C2032       C  0.13700365  0.13861560  0.50066374    -0.21400
C2033       C  0.09001836  0.02751208  0.38715951    -0.22400
C2034       C  0.08033637  0.03482735  0.41701863    -0.22400
C2035       C  0.22155469  0.09890263  0.41289363    -0.22400
C2036       C  0.21259566  0.10668291  0.44298635    -0.22400
C2037       C  0.13054378  0.04812893  0.34995373    -0.17800
C2038       C  0.21252777  0.12517740  0.36186043    -0.17800
C2039       C  0.18443835  0.15255743  0.46456227    -0.17800
C2040       C  0.09694735  0.07298265  0.45887666    -0.17800
H2041       H  0.15924916  0.06462597  0.29003418     0.15100
H2042       H  0.20459536  0.10769463  0.29660804     0.15100
H2043       H  0.09548282  0.11041354  0.51715475     0.15100
H2044       H  0.14139007  0.15433854  0.52035027     0.15100
H2045       H  0.07845437  0.01045373  0.37202681     0.13400
H2046       H  0.05992378  0.02417729  0.42854228     0.13400
H2047       H  0.22834351  0.07569796  0.40463755     0.13400
H2048       H  0.21111477  0.09093652  0.46302166     0.13400
H2049       H  0.17174283  0.08180473  0.38793579     0.26700
H2050       H  0.15015642  0.10601970  0.43297529     0.26700
C2051       C  0.19334678  0.00224744  0.01849272     0.80700
N2052       N  0.22475592  0.00258626  0.02646618    -0.77600
C2053       C  0.24372759  0.02638666  0.01644217     0.83200
N2054       N  0.23100019  0.05021002  0.99994201    -0.77500
C2055       C  0.19975669  0.05095977  0.99315746     0.83300
N2056       N  0.18081426  0.02671657  0.00208040    -0.79200
N2057       N  0.35079254  0.13218507  0.11061684    -0.36100
N2058       N  0.40168586  0.09200649  0.08739153    -0.56600
N2059       N  0.44892078  0.12555877  0.12482996    -0.36100
N2060       N  0.39589016  0.16931577  0.14597027    -0.56600
C2061       C  0.33630585  0.11763123  0.08640590     0.27500
C2062       C  0.33312284  0.15759067  0.11811986     0.27500
C2063       C  0.46834718  0.10939469  0.10420197     0.27500
C2064       C  0.46519854  0.14999114  0.13864562     0.27500
C2065       C  0.37566504  0.07519156  0.07906366     0.36100
C2066       C  0.42668197  0.07243259  0.08370979     0.36100
C2067       C  0.36770828  0.17471904  0.16087343     0.36100
C2068       C  0.41845830  0.17017660  0.16859489     0.36100
C2069       C  0.30915817  0.13413215  0.07787693    -0.21400
C2070       C  0.30714732  0.15962637  0.09808961    -0.21400
C2071       C  0.49823756  0.12344450  0.10561989    -0.21400
C2072       C  0.49629770  0.14880016  0.12703381    -0.21400
C2073       C  0.38383949  0.04491072  0.07030502    -0.22400
C2074       C  0.41605258  0.04328287  0.07267284    -0.22400
C2075       C  0.37217276  0.17909509  0.19287324    -0.22400
C2076       C  0.40423173  0.17548965  0.19789521    -0.22400
C2077       C  0.34526569  0.08795962  0.07498708    -0.17800
C2078       C  0.33804412  0.17558663  0.14550289    -0.17800
C2079       C  0.45166835  0.17171295  0.16205226    -0.17800
C2080       C  0.45898197  0.08194212  0.08545762    -0.17800
H2081       H  0.29203223  0.12777286  0.05986600     0.15100
H2082       H  0.28812145  0.17681534  0.09892321     0.15100
H2083       H  0.51930714  0.11621014  0.09265823     0.15100
H2084       H  0.51576722  0.16432235  0.13325537     0.15100
H2085       H  0.36850568  0.02649189  0.06117083     0.13400
H2086       H  0.42975619  0.02320789  0.06500859     0.13400
H2087       H  0.35416591  0.18357777  0.21073533     0.13400
H2088       H  0.41584622  0.17702463  0.22057565     0.13400
H2089       H  0.36981830  0.12332248  0.12352037     0.26700
H2090       H  0.42544247  0.11975689  0.13023035     0.26700
N2091       N  0.14961587  0.19617370  0.88683604    -0.36100
N2092       N  0.10075627  0.22616508  0.83000065    -0.56600
N2093       N  0.14571117  0.15525446  0.79308287    -0.36100
N2094       N  0.16852246  0.13392155  0.85127828    -0.56600
C2095       C  0.13316639  0.22076154  0.89930114     0.27500
C2096       C  0.15644372  0.17672911  0.91076551     0.27500
C2097       C  0.12035922  0.16604898  0.77616250     0.27500
C2098       C  0.15302695  0.12498329  0.78470069     0.27500
C2099       C  0.12088292  0.24202900  0.84866266     0.36100
C2100       C  0.11781403  0.21640488  0.80492723     0.36100
C2101       C  0.18389009  0.13480923  0.87922637     0.36100
C2102       C  0.18571484  0.11456247  0.83205548     0.36100
C2103       C  0.13064216  0.21739731  0.93174899    -0.21400
C2104       C  0.14549213  0.18950453  0.93905681    -0.21400
C2105       C  0.11160245  0.14212234  0.75540572    -0.21400
C2106       C  0.13250140  0.11659893  0.76032130    -0.21400
C2107       C  0.15083564  0.24386921  0.83454416    -0.22400
C2108       C  0.14887744  0.22728342  0.80652966    -0.22400
C2109       C  0.21041041  0.11556020  0.87824996    -0.22400
C2110       C  0.21198655  0.10332122  0.84839560    -0.22400
C2111       C  0.11545864  0.24224560  0.88114959    -0.17800
C2112       C  0.17123422  0.14728146  0.90744897    -0.17800
C2113       C  0.17645107  0.10545621  0.80085833    -0.17800
C2114       C  0.10473379  0.19600546  0.78246404    -0.17800
H2115       H  0.11791416  0.23256035  0.94808252     0.15100
H2116       H  0.14699476  0.17927013  0.96239163     0.15100
H2117       H  0.09183125  0.14257249  0.73906537     0.15100
H2118       H  0.13137779  0.09393545  0.74859440     0.15100
H2119       H  0.17248402  0.25287090  0.84513907     0.13400
H2120       H  0.16817071  0.22245295  0.79014833     0.13400
H2121       H  0.22673786  0.11058347  0.89734059     0.13400
H2122       H  0.23049170  0.08770727  0.84029928     0.13400
H2123       H  0.15387754  0.19124175  0.86308931     0.26700
H2124       H  0.15733050  0.16826220  0.81035837     0.26700
N2125       N  0.06917742  0.88600059  0.09374904    -0.36100
N2126       N  0.12475645  0.84545583  0.07467377    -0.56600
N2127       N  0.10653469  0.79437669  0.11538618    -0.36100
N2128       N  0.05404283  0.83621716  0.13608614    -0.56600
C2129       C  0.09015478  0.90731015  0.08290530     0.27500
C2130       C  0.05073532  0.90109286  0.11518201     0.27500
C2131       C  0.13608694  0.78422975  0.10586813     0.27500
C2132       C  0.09849636  0.78160708  0.14406946     0.27500
C2133       C  0.12616696  0.87028713  0.05473280     0.36100
C2134       C  0.14395957  0.82303819  0.06199785     0.36100
C2135       C  0.02723009  0.85365456  0.13633070     0.36100
C2136       C  0.04591531  0.80813530  0.14802676     0.36100
C2137       C  0.08388211  0.93669733  0.09602896    -0.21400
C2138       C  0.05886328  0.93270381  0.11664493    -0.21400
C2139       C  0.14676750  0.76332474  0.12872791    -0.21400
C2140       C  0.12348087  0.76204102  0.15282502    -0.21400
C2141       C  0.14615877  0.86395009  0.02954556    -0.22400
C2142       C  0.15752059  0.83432765  0.03403883    -0.22400
C2143       C  0.00202317  0.83704319  0.14873531    -0.22400
C2144       C  0.01345285  0.80764497  0.15521456    -0.22400
C2145       C  0.11500280  0.90065646  0.06179910    -0.17800
C2146       C  0.02828316  0.88624495  0.13470185    -0.17800
C2147       C  0.06860617  0.78756779  0.16092138    -0.17800
C2148       C  0.15253231  0.79427084  0.07704876    -0.17800
H2149       H  0.09664542  0.95851094  0.09195974     0.24700
H2150       H  0.04851556  0.95071387  0.13166062     0.15100
H2151       H  0.16933385  0.75098663  0.12859828     0.15100
H2152       H  0.12482538  0.74818816  0.17419866     0.15100
H2153       H  0.15316445  0.87977416  0.01072165     0.13400
H2154       H  0.17530847  0.82362143  0.01893520     0.13400
H2155       H  0.97896177  0.84640481  0.15505699     0.13400
H2156       H  0.00037703  0.78915962  0.16719132     0.13400
H2157       H  0.06811698  0.86234088  0.08715468     0.26700
H2158       H  0.09182696  0.80896589  0.10224548     0.26700
N2159       N  0.80083702  0.13906464  0.12763842    -0.36100
N2160       N  0.85007165  0.11201827  0.16860165    -0.56600
N2161       N  0.90062794  0.12459230  0.12584272    -0.36100
N2162       N  0.85148853  0.14742616  0.08072469    -0.56600
C2163       C  0.78418456  0.11676601  0.14432390     0.27500
C2164       C  0.78514214  0.14692856  0.10050593     0.27500
C2165       C  0.91474480  0.10552091  0.14683089     0.27500
C2166       C  0.91517643  0.12038701  0.09772893     0.27500
C2167       C  0.82377326  0.11402855  0.18662467     0.36100
C2168       C  0.87505358  0.11328789  0.18833943     0.36100
C2169       C  0.83165357  0.17209747  0.07656882     0.36100
C2170       C  0.88062823  0.15758994  0.07167527     0.36100
C2171       C  0.75645857  0.11058204  0.12744624    -0.21400
C2172       C  0.75681275  0.12982903  0.10025833    -0.21400
C2173       C  0.93917514  0.08897510  0.13205518    -0.21400
C2174       C  0.93945214  0.09849129  0.10073263    -0.21400
C2175       C  0.83213631  0.11691684  0.21827761    -0.22400
C2176       C  0.86482975  0.11644284  0.21931425    -0.22400
C2177       C  0.84884266  0.19826433  0.06634906    -0.22400
C2178       C  0.87977357  0.18873200  0.06238529    -0.22400
C2179       C  0.79413881  0.10432420  0.17488963    -0.17800
C2180       C  0.79802908  0.16872999  0.07705363    -0.17800
C2181       C  0.90780322  0.13839326  0.07094082    -0.17800
C2182       C  0.90556833  0.10387709  0.17882095    -0.17800
H2183       H  0.73772414  0.09432151  0.13414164     0.15100
H2184       H  0.73876149  0.13032585  0.08207932     0.15100
H2185       H  0.95501504  0.07194487  0.14265954     0.15100
H2186       H  0.95572714  0.09054993  0.08246527     0.15100
H2187       H  0.81655193  0.11793264  0.23867487     0.13400
H2188       H  0.87933865  0.11628401  0.24041672     0.13400
H2189       H  0.84014634  0.22180518  0.06194604     0.13400
H2190       H  0.89953007  0.20314437  0.05436110     0.13400
H2191       H  0.82226114  0.14937518  0.13466156     0.26700
H2192       H  0.88277973  0.14095533  0.13088514     0.26700
C2193       C  0.27529853  0.03180302  0.02945976    -0.04900
C2194       C  0.27865617  0.03018266  0.06234756    -0.32400
C2195       C  0.30169503  0.04844628  0.07737546     0.36900
C2196       C  0.32138036  0.06829735  0.05934940    -0.05300
C2197       C  0.32026224  0.06745933  0.02640765    -0.32300
C2198       C  0.29752400  0.04898581  0.01128739     0.36800
H2199       H  0.26149128  0.01735587  0.07660002     0.17200
O2200       O  0.30361564  0.04827014  0.10972779    -0.59800
H2201       H  0.33605511  0.08209515  0.01251895     0.17200
O2202       O  0.29557514  0.04945312  0.97887842    -0.59900
H2203       H  0.28793855  0.07084478  0.97334703     0.44200
H2204       H  0.32097591  0.03324452  0.11464761     0.44100
C2205       C  0.13456415  0.92701289  0.05080196    -0.04900
C2206       C  0.12431837  0.94526850  0.02547094    -0.32400
C2207       C  0.14332851  0.96983701  0.01442876     0.36900
C2208       C  0.17274813  0.97643071  0.02925981    -0.05300
C2209       C  0.18265924  0.95797461  0.05488391    -0.32300
C2210       C  0.16370662  0.93339848  0.06570877     0.36800
H2211       H  0.10182291  0.94010314  0.01402695     0.17200
O2212       O  0.13310224  0.98683526  0.98890922    -0.59800
H2213       H  0.20503129  0.96266451  0.06674738     0.17200
O2214       O  0.17393603  0.91542422  0.09059357    -0.59900
H2215       H  0.16292667  0.92415948  0.10946554     0.44200
H2216       H  0.14261942  0.97620147  0.97022073     0.44100
C2217       C  0.18727752  0.07847742  0.97673691    -0.04900
C2218       C  0.16108795  0.07517800  0.95660216    -0.32400
C2219       C  0.15373849  0.09922274  0.93557627     0.36900
C2220       C  0.17274493  0.12655014  0.93485041    -0.05300
C2221       C  0.19659289  0.13130597  0.95714789    -0.32300
C2222       C  0.20371976  0.10758597  0.97841932     0.36800
H2223       H  0.14780253  0.05327636  0.95556364     0.17200
O2224       O  0.12912476  0.09530357  0.91462993    -0.59800
H2225       H  0.21094146  0.15257202  0.95670975     0.17200
O2226       O  0.22806257  0.11245000  0.99946159    -0.59900
H2227       H  0.21744270  0.11875300  0.01948558     0.44200
H2228       H  0.13809249  0.08259786  0.89700796     0.44100
C2229       C  0.21189447  0.20407876  0.29996360    -0.04900
C2230       C  0.24105399  0.19103070  0.30978937    -0.32400
C2231       C  0.24173189  0.16615347  0.33113140     0.36900
C2232       C  0.21326593  0.15532619  0.34463381    -0.05300
C2233       C  0.18449216  0.17089814  0.33806180    -0.32300
C2234       C  0.18352777  0.19492407  0.31549515     0.36800
H2235       H  0.26326009  0.19800610  0.29860007     0.17200
O2236       O  0.26990897  0.15077257  0.33635814    -0.59800
H2237       H  0.16239814  0.16267018  0.34860846     0.17200
O2238       O  0.15456930  0.20726351  0.30708167    -0.59900
H2239       H  0.14576355  0.19236675  0.29123493     0.44200
H2240       H  0.27128810  0.13447336  0.31956173     0.44100
C2241       C  0.31000471  0.18997211  0.16158359    -0.04900
C2242       C  0.28479315  0.17043823  0.17128769    -0.32400
C2243       C  0.25930991  0.18264990  0.18875859     0.36900
C2244       C  0.25837135  0.21495050  0.19624436    -0.05300
C2245       C  0.28296700  0.23480668  0.18575196    -0.32300
C2246       C  0.30882460  0.22243616  0.16857145     0.36800
H2247       H  0.28544837  0.14540208  0.16621445     0.17200
O2248       O  0.23553832  0.16276471  0.19888021    -0.59800
H2249       H  0.28277587  0.25957925  0.19200430     0.17200
O2250       O  0.33326816  0.24198705  0.15955153    -0.59900
H2251       H  0.32754819  0.24921496  0.13805092     0.44200
H2252       H  0.24350780  0.15352626  0.21884373     0.44100
C2253       C  0.06106205  0.01574594  0.28497395    -0.04900
C2254       C  0.06702125  0.04812085  0.28851205    -0.32400
C2255       C  0.09161699  0.05872316  0.30765604     0.36900
C2256       C  0.11107074  0.03689257  0.32323235    -0.05300
C2257       C  0.10757908  0.00460303  0.31713224    -0.32300
C2258       C  0.08255562  0.99385880  0.29810910     0.36800
H2259       H  0.05168787  0.06544246  0.27758626     0.17200
O2260       O  0.09544172  0.09050819  0.31246450    -0.59800
H2261       H  0.12260731  0.98773834  0.32913411     0.17200
O2262       O  0.07778692  0.96204961  0.29484736    -0.59900
H2263       H  0.09122323  0.95572523  0.27655866     0.44200
H2264       H  0.08080891  0.09588780  0.33014854     0.44100
C2265       C  0.92383917  0.08451707  0.20101892    -0.04900
C2266       C  0.91041754  0.05603165  0.21128612    -0.32400
C2267       C  0.92776202  0.03566765  0.23021890     0.36900
C2268       C  0.95903880  0.04374638  0.23895263    -0.05300
C2269       C  0.97138507  0.07352873  0.23100187    -0.32300
C2270       C  0.95406337  0.09374370  0.21161763     0.36800
H2271       H  0.88682767  0.04915297  0.20352379     0.17200
O2272       O  0.91488612  0.00699866  0.23815145    -0.59800
H2273       H  0.99549921  0.08005087  0.23745941     0.17200
O2274       O  0.96707527  0.12195680  0.20243874    -0.59900
H2275       H  0.98149538  0.11675618  0.18452849     0.44200
H2276       H  0.90465774  0.01031926  0.25906902     0.44100
C2277       C  0.01795349  0.90304274  0.16349299    -0.04900
C2278       C  0.98876670  0.91879561  0.16490159    -0.32400
C2279       C  0.98174297  0.93834374  0.19069595     0.36900
C2280       C  0.00456970  0.94251800  0.21508279    -0.05300
C2281       C  0.03210544  0.92382271  0.21489329    -0.32300
C2282       C  0.03906006  0.90457178  0.18920341     0.36800
H2283       H  0.97213866  0.91700748  0.14543694     0.17200
O2284       O  0.95364105  0.95484401  0.19050621    -0.59800
H2285       H  0.04963775  0.92579654  0.23353238     0.17200
O2286       O  0.06749018  0.88857785  0.18852984    -0.59900
H2287       H  0.08338919  0.90387930  0.18033073     0.44200
H2288       H  0.93869939  0.94228647  0.20365307     0.44100
C2289       C  0.11011757  0.31281727  0.20104007    -0.04900
C2290       C  0.12733901  0.29542351  0.17861506    -0.32400
C2291       C  0.15085424  0.27425771  0.18793846     0.36900
C2292       C  0.15775318  0.27034364  0.22034137    -0.05300
C2293       C  0.13823459  0.28560601  0.24287419    -0.32300
C2294       C  0.11429513  0.30653634  0.23329504     0.36800
H2295       H  0.12416216  0.30004446  0.15364024     0.17200
O2296       O  0.16787142  0.25866594  0.16499874    -0.59800
H2297       H  0.14239425  0.28244933  0.26791762     0.17200
O2298       O  0.09652775  0.32223894  0.25549786    -0.59900
H2299       H  0.07858590  0.30786419  0.26063279     0.44200
H2300       H  0.15466453  0.24007486  0.15940719     0.44100
C2301       C  0.98988403  0.28907164  0.03042801    -0.04900
C2302       C  0.01437897  0.27856087  0.05012309    -0.32400
C2303       C  0.02465749  0.29672599  0.07549151     0.36900
C2304       C  0.00996245  0.32582771  0.08185267    -0.05300
C2305       C  0.98388272  0.33546585  0.06328795    -0.32300
C2306       C  0.97381059  0.31717900  0.03750011     0.36800
H2307       H  0.02664415  0.25668547  0.04488613     0.17200
O2308       O  0.05060038  0.28688840  0.09244737    -0.59800
H2309       H  0.97277680  0.35812296  0.06761919     0.17200
O2310       O  0.94954263  0.32761725  0.01861864    -0.59900
H2311       H  0.92967464  0.31997760  0.02887222     0.44200
H2312       H  0.06945943  0.29475999  0.08061972     0.44100
C2313       C  0.08233605  0.24756999  0.89271004    -0.04900
C2314       C  0.06059096  0.22234487  0.89196925    -0.32400
C2315       C  0.03267660  0.22297504  0.91016932     0.36900
C2316       C  0.02608875  0.24919060  0.92976050    -0.05300
C2317       C  0.04613221  0.27590565  0.92743239    -0.32300
C2318       C  0.07410663  0.27514772  0.90913892     0.36800
H2319       H  0.06647089  0.20101834  0.87906830     0.17200
O2320       O  0.01290860  0.19717414  0.90973693    -0.59800
H2321       H  0.04145827  0.29672718  0.94155381     0.17200
O2322       O  0.09456035  0.30039402  0.90975462    -0.59900
H2323       H  0.09145135  0.31120754  0.88925162     0.44200
H2324       H  0.02389641  0.18090354  0.92245067     0.44100
C2325       C  0.93161068  0.14459438  0.04565451    -0.04900
C2326       C  0.96117809  0.15713710  0.05435618    -0.32400
C2327       C  0.97732243  0.17744537  0.03393539     0.36900
C2328       C  0.96393087  0.18509555  0.00442701    -0.05300
C2329       C  0.93735712  0.16835126  0.99359961    -0.32300
C2330       C  0.92138690  0.14762202  0.01399628     0.36800
H2331       H  0.96961971  0.15488895  0.07840643     0.17200
O2332       O  0.00419650  0.19273632  0.04441290    -0.59800
H2333       H  0.92693956  0.17393770  0.97090823     0.17200
O2334       O  0.89318296  0.13428334  0.00447481    -0.59900
H2335       H  0.89923235  0.11369940  0.99509075     0.44200
H2336       H  0.99670029  0.20773528  0.06086878     0.44100
C2337       C  0.98016033  0.32100916  0.52104426    -0.04900
C2338       C  0.94905516  0.32748941  0.51104769    -0.32400
C2339       C  0.92902347  0.34636000  0.52933280     0.36900
C2340       C  0.94087978  0.36079422  0.55695220    -0.05300
C2341       C  0.97414781  0.36037899  0.56222993    -0.32300
C2342       C  0.99368040  0.33942050  0.54519882     0.36800
H2343       H  0.93870380  0.31396152  0.49186456     0.17200
O2344       O  0.89708625  0.34665994  0.52243212    -0.59800
H2345       H  0.98384056  0.37196451  0.58294309     0.17200
O2346       O  0.02390064  0.33332201  0.55584102    -0.59900
H2347       H  0.03838841  0.34326108  0.54018470     0.44200
H2348       H  0.88800782  0.32793679  0.53322043     0.44100
C2349       C  0.95650202  0.21013461  0.50642714    -0.04900
C2350       C  0.96501134  0.18137329  0.49232206    -0.32400
C2351       C  0.94181630  0.16007636  0.48251888     0.36900
C2352       C  0.90928492  0.16695213  0.48739370    -0.05300
C2353       C  0.90077615  0.19366138  0.50502878    -0.32300
C2354       C  0.92409131  0.21541043  0.51442675     0.36800
H2355       H  0.98964743  0.17625713  0.48646588     0.17200
O2356       O  0.95109643  0.13437644  0.46501733    -0.59800
H2357       H  0.87583918  0.19880470  0.50945133     0.17200
O2358       O  0.91465416  0.24234485  0.52983845    -0.59900
H2359       H  0.90622939  0.25637167  0.51313295     0.44200
H2360       H  0.95958668  0.11912777  0.48056406     0.44100
C2361       C  0.10012371  0.25731661  0.41542384    -0.04900
C2362       C  0.07610011  0.23452119  0.41408262    -0.32400
C2363       C  0.05429397  0.23155859  0.43899818     0.36900
C2364       C  0.05640203  0.25196672  0.46549281    -0.05300
C2365       C  0.08283118  0.27193027  0.46833947    -0.32300
C2366       C  0.10471231  0.27466435  0.44356554     0.36800
H2367       H  0.07227065  0.22134757  0.39244468     0.17200
O2368       O  0.02879809  0.21163036  0.43520679    -0.59800
H2369       H  0.08520039  0.28722643  0.48875640     0.17200
O2370       O  0.12844398  0.29688881  0.44564938    -0.59900
H2371       H  0.11835318  0.31705100  0.43943594     0.44200
H2372       H  0.03654471  0.19069813  0.44209454     0.44100
C2373       C  0.94672293  0.51618478  0.31677194    -0.04900
C2374       C  0.95941818  0.52018149  0.34729967    -0.32400
C2375       C  0.94826125  0.54403836  0.36718879     0.36900
C2376       C  0.92426349  0.56430677  0.35661384    -0.05300
C2377       C  0.91062393  0.55984136  0.32687339    -0.32300
C2378       C  0.92162663  0.53605721  0.30688563     0.36800
H2379       H  0.97860038  0.50533725  0.35560666     0.17200
O2380       O  0.96206809  0.54846484  0.39619759    -0.59800
H2381       H  0.89194821  0.57548003  0.31882644     0.17200
O2382       O  0.90759478  0.53261097  0.27784939    -0.59900
H2383       H  0.91806964  0.54850604  0.26412596     0.44200
H2384       H  0.94805219  0.53714191  0.41132547     0.44100
C2385       C  0.95317234  0.46331265  0.21325101    -0.04900
C2386       C  0.97557082  0.45410255  0.19026676    -0.32400
C2387       C  0.96565329  0.43923013  0.16269092     0.36900
C2388       C  0.93313870  0.43319885  0.15824029    -0.05300
C2389       C  0.91051572  0.44468529  0.17983090    -0.32300
C2390       C  0.92036913  0.45987163  0.20735449     0.36800
H2391       H  0.00090568  0.45652000  0.19473067     0.17200
O2392       O  0.98791980  0.42849047  0.14143839    -0.59800
H2393       H  0.88531634  0.44041793  0.17604034     0.17200
O2394       O  0.89800862  0.46866262  0.22944614    -0.59900
H2395       H  0.89472212  0.44981902  0.24288925     0.44200
H2396       H  0.98911443  0.44489821  0.12484246     0.44100
C2397       C  0.01693125  0.42504461  0.29879508    -0.04900
C2398       C  0.04119364  0.43376456  0.31966324    -0.32400
C2399       C  0.06460161  0.41206000  0.32786564     0.36900
C2400       C  0.06354813  0.38132166  0.31529416    -0.05300
C2401       C  0.03852378  0.37210467  0.29572378    -0.32300
C2402       C  0.01536525  0.39387022  0.28712440     0.36800
H2403       H  0.04271790  0.45768721  0.32856858     0.17200
O2404       O  0.08908683  0.42128845  0.34723558    -0.59800
H2405       H  0.03756372  0.34835082  0.28631300     0.17200
O2406       O  0.99112068  0.38443585  0.26753543    -0.59900
H2407       H  0.00058394  0.38400164  0.24600130     0.44200
H2408       H  0.08091623  0.41821804  0.36904006     0.44100
C2409       C  0.74324237  0.46744489  0.54982803    -0.04900
C2410       C  0.75827273  0.47480465  0.57848393    -0.32400
C2411       C  0.77973899  0.45385252  0.59205811     0.36900
C2412       C  0.78626707  0.42477948  0.57716560    -0.05300
C2413       C  0.76932196  0.41617552  0.55008109    -0.32300
C2414       C  0.74754591  0.43711982  0.53655143     0.36800
H2415       H  0.75494483  0.49773933  0.58935414     0.17200
O2416       O  0.79476315  0.46220491  0.61961160    -0.59800
H2417       H  0.77334464  0.39338424  0.53919630     0.17200
O2418       O  0.73263923  0.42855375  0.50905502    -0.59900
H2419       H  0.71156393  0.42019161  0.51574787     0.44200
H2420       H  0.81339792  0.47506099  0.61300701     0.44100
C2421       C  0.76699071  0.56831931  0.50605929    -0.04900
C2422       C  0.79677751  0.56423471  0.52097280    -0.32400
C2423       C  0.82408220  0.57919163  0.50924480     0.36900
C2424       C  0.82155864  0.59878485  0.48283483    -0.05300
C2425       C  0.79142330  0.60606376  0.47065706    -0.32300
C2426       C  0.76415077  0.59136685  0.48236694     0.36800
H2427       H  0.79957686  0.54746372  0.53999773     0.17200
O2428       O  0.85308260  0.57383271  0.52305399    -0.59800
H2429       H  0.78925814  0.62237860  0.45112390     0.17200
O2430       O  0.73526212  0.59806285  0.46889836    -0.59900
H2431       H  0.72603549  0.61510683  0.48213828     0.44200
H2432       H  0.86253084  0.55600204  0.51108281     0.44100
C2433       C  0.66170176  0.48125825  0.39687105    -0.04900
C2434       C  0.67233005  0.51233953  0.40002290    -0.32400
C2435       C  0.68523226  0.52292004  0.42868213     0.36900
C2436       C  0.68765780  0.50209753  0.45474233    -0.05300
C2437       C  0.67559399  0.47134638  0.45155765    -0.32300
C2438       C  0.66298563  0.46087177  0.42298697     0.36800
H2439       H  0.67082923  0.52832853  0.38017776     0.17200
O2440       O  0.69607861  0.55335506  0.43049177    -0.59800
H2441       H  0.67660255  0.45484639  0.47099942     0.17200
O2442       O  0.65156337  0.43061515  0.42080151    -0.59900
H2443       H  0.67068195  0.41720827  0.41769456     0.44200
H2444       H  0.67729554  0.56598160  0.43708838     0.44100
C2445       C  0.80236597  0.22877447  0.30891272    -0.04900
C2446       C  0.78046227  0.22716012  0.33437818    -0.32400
C2447       C  0.78370985  0.20475674  0.35806766     0.36900
C2448       C  0.80891647  0.18341853  0.35654535    -0.05300
C2449       C  0.83062418  0.18438150  0.33123654    -0.32300
C2450       C  0.82772705  0.20706166  0.30760165     0.36800
H2451       H  0.76077465  0.24352513  0.33638510     0.17200
O2452       O  0.76276628  0.20445074  0.38307318    -0.59800
H2453       H  0.85031495  0.16788377  0.33028004     0.17200
O2454       O  0.84984947  0.20777093  0.28364240    -0.59900
H2455       H  0.86727940  0.22150223  0.29152091     0.44200
H2456       H  0.74403198  0.19230770  0.37555547     0.44100
C2457       C  0.69009408  0.35867500  0.29205853    -0.04900
C2458       C  0.70876468  0.36566596  0.26544162    -0.32400
C2459       C  0.73455119  0.34626361  0.25717178     0.36900
C2460       C  0.74152800  0.31953965  0.27575896    -0.05300
C2461       C  0.72233558  0.31300744  0.30234588    -0.32300
C2462       C  0.69690523  0.33220625  0.31042840     0.36800
H2463       H  0.70325397  0.38604775  0.25112366     0.17200
O2464       O  0.75228738  0.35341409  0.23083837    -0.59800
H2465       H  0.72682986  0.29284347  0.31727409     0.17200
O2466       O  0.67892588  0.32523134  0.33669783    -0.59900
H2467       H  0.66368880  0.30873419  0.32972954     0.44200
H2468       H  0.76707160  0.37037409  0.23763657     0.44100
C2469       C  0.83609193  0.28808256  0.21355504    -0.04900
C2470       C  0.85108652  0.26302090  0.19742993    -0.32400
C2471       C  0.86965920  0.26880365  0.17023391     0.36900
C2472       C  0.87334719  0.29991518  0.15941829    -0.05300
C2473       C  0.85978177  0.32478157  0.17673557    -0.32300
C2474       C  0.84171858  0.31918323  0.20360131     0.36800
H2475       H  0.84738181  0.23896545  0.20512561     0.17200
O2476       O  0.88359037  0.24424647  0.15411428    -0.59800
H2477       H  0.86224007  0.34889148  0.16869326     0.17200
O2478       O  0.82907615  0.34445248  0.21957173    -0.59900
H2479       H  0.84565123  0.35074658  0.23501758     0.44200
H2480       H  0.86579671  0.23080940  0.14652378     0.44100
C2481       C  0.96627627  0.52271550  0.68424364    -0.04900
C2482       C  0.95977932  0.55481318  0.68058408    -0.32400
C2483       C  0.93803148  0.56486976  0.65823896     0.36900
C2484       C  0.92194550  0.54263843  0.63941888    -0.05300
C2485       C  0.92954078  0.51055116  0.64170383    -0.32300
C2486       C  0.95199495  0.50049199  0.66398163     0.36800
H2487       H  0.97091104  0.57216321  0.69581686     0.17200
O2488       O  0.93028076  0.59625098  0.65701455    -0.59800
H2489       H  0.91685668  0.49334806  0.62754537     0.17200
O2490       O  0.95840645  0.46898020  0.66703608    -0.59900
H2491       H  0.94230361  0.46098138  0.68228255     0.44200
H2492       H  0.94434241  0.60524852  0.64042326     0.44100
C2493       C  0.06417497  0.47544150  0.72355279    -0.04900
C2494       C  0.08075976  0.48296381  0.69574720    -0.32400
C2495       C  0.10694184  0.46509100  0.68621842     0.36900
C2496       C  0.11627054  0.43909101  0.70441829    -0.05300
C2497       C  0.10215806  0.43396995  0.73411771    -0.32300
C2498       C  0.07632955  0.45239116  0.74401805     0.36800
H2499       H  0.07228660  0.50159355  0.68048363     0.17200
O2500       O  0.12085081  0.47082958  0.65737626    -0.59800
H2501       H  0.10902731  0.41372640  0.74807162     0.17200
O2502       O  0.06090937  0.44529069  0.77178035    -0.59900
H2503       H  0.07522243  0.45294128  0.78877317     0.44200
H2504       H  0.10776861  0.45903723  0.64182833     0.44100
C2505       C  0.00359982  0.54592529  0.78892572    -0.04900
C2506       C  0.01220606  0.53487361  0.81878743    -0.32400
C2507       C  0.02652477  0.55519347  0.84035129     0.36900
C2508       C  0.03175869  0.58688929  0.83197653    -0.05300
C2509       C  0.01973016  0.59871293  0.80373491    -0.32300
C2510       C  0.00555558  0.57838749  0.78209097     0.36800
H2511       H  0.01097417  0.50991817  0.82404835     0.17200
O2512       O  0.03814929  0.54328336  0.86813901    -0.59800
H2513       H  0.02394929  0.62306941  0.79730384     0.17200
O2514       O  0.99850983  0.58957020  0.75256640    -0.59900
H2515       H  0.97685733  0.59874194  0.75455549     0.44200
H2516       H  0.06014354  0.53617489  0.86317055     0.44100
C2517       C  0.32799122  0.55030537  0.50467530    -0.04900
C2518       C  0.34414046  0.55610589  0.53298334    -0.32400
C2519       C  0.35947099  0.58490613  0.53781713     0.36900
C2520       C  0.35831537  0.60842249  0.51428541    -0.05300
C2521       C  0.34647040  0.60092348  0.48444146    -0.32300
C2522       C  0.33202314  0.57166304  0.47923532     0.36800
H2523       H  0.34215981  0.53987410  0.55260787     0.17200
O2524       O  0.37330748  0.59089028  0.56655020    -0.59800
H2525       H  0.34723643  0.61817528  0.46563287     0.17200
O2526       O  0.31895948  0.56553185  0.45017623    -0.59900
H2527       H  0.33693362  0.55782592  0.43695843     0.44200
H2528       H  0.39377864  0.57920143  0.56614958     0.44100
C2529       C  0.23591888  0.42970703  0.60423160    -0.04900
C2530       C  0.26742856  0.42797349  0.59271653    -0.32400
C2531       C  0.27880736  0.45048895  0.57104937     0.36900
C2532       C  0.25841909  0.47484512  0.56103624    -0.05300
C2533       C  0.22826271  0.47802348  0.57514021    -0.32300
C2534       C  0.21675358  0.45554709  0.59597203     0.36800
H2535       H  0.28218854  0.40790500  0.59856139     0.17200
O2536       O  0.30834030  0.44665118  0.55750170    -0.59800
H2537       H  0.21248334  0.49702290  0.56837600     0.17200
O2538       O  0.18560462  0.45760545  0.60593836    -0.59900
H2539       H  0.17315419  0.44512687  0.59040899     0.44200
H2540       H  0.32380173  0.45283668  0.57408659     0.44100
C2541       C  0.29053100  0.72687293  0.68606114    -0.04900
C2542       C  0.29491187  0.74993437  0.66247740    -0.32400
C2543       C  0.31470985  0.74431683  0.63644264     0.36900
C2544       C  0.33028651  0.71531304  0.63371735    -0.05300
C2545       C  0.32585458  0.69216314  0.65685394    -0.32300
C2546       C  0.30602991  0.69761139  0.68279749     0.36800
H2547       H  0.28298422  0.77245468  0.66402960     0.17200
O2548       O  0.31869607  0.76712011  0.61383864    -0.59800
H2549       H  0.33845067  0.66994066  0.65503908     0.17200
O2550       O  0.30306880  0.67463227  0.70533564    -0.59900
H2551       H  0.28710281  0.65961179  0.69679846     0.44200
H2552       H  0.33096506  0.78422430  0.62425149     0.44100
C2553       C  0.21463180  0.69199740  0.76838024    -0.04900
C2554       C  0.18188751  0.69773593  0.77223539    -0.32400
C2555       C  0.16400906  0.68075360  0.79395669     0.36900
C2556       C  0.17876116  0.65734564  0.81209534    -0.05300
C2557       C  0.21065704  0.64910892  0.80593227    -0.32300
C2558       C  0.22869477  0.66629943  0.78384907     0.36800
H2559       H  0.17052687  0.71704226  0.75992266     0.17200
O2560       O  0.13300110  0.68944584  0.79972080    -0.59800
H2561       H  0.22197480  0.63074301  0.81958366     0.17200
O2562       O  0.26027495  0.65923152  0.77916750    -0.59900
H2563       H  0.27171428  0.66949504  0.79690615     0.44200
H2564       H  0.12021096  0.67806787  0.78364826     0.44100
C2565       C  0.21921819  0.80063473  0.73938460    -0.04900
C2566       C  0.19184768  0.80379013  0.75870873    -0.32400
C2567       C  0.16764751  0.82470007  0.75063252     0.36900
C2568       C  0.17112640  0.84324864  0.72360267    -0.05300
C2569       C  0.20016962  0.84372882  0.70717650    -0.32300
C2570       C  0.22432599  0.82258704  0.71488260     0.36800
H2571       H  0.18772775  0.78806956  0.77843859     0.17200
O2572       O  0.13986585  0.82519145  0.76785282    -0.59800
H2573       H  0.20333154  0.85922935  0.68708590     0.17200
O2574       O  0.25187223  0.82243391  0.69721782    -0.59900
H2575       H  0.24558328  0.81471183  0.67597873     0.44200
H2576       H  0.14220751  0.84320937  0.78262666     0.44100
C2577       C  0.21850576  0.54212755  0.47738274    -0.04900
C2578       C  0.22018691  0.57490976  0.47387556    -0.32400
C2579       C  0.19889089  0.59057138  0.45454257     0.36900
C2580       C  0.17508445  0.57346223  0.43863731    -0.05300
C2581       C  0.17133435  0.54107619  0.44453089    -0.32300
C2582       C  0.19304944  0.52527862  0.46392799     0.36800
H2583       H  0.23923406  0.58829943  0.48484587     0.17200
O2584       O  0.20306748  0.62224022  0.44944186    -0.59800
H2585       H  0.15305316  0.52777668  0.43230206     0.17200
O2586       O  0.19049170  0.49330818  0.46780924    -0.59900
H2587       H  0.20300193  0.48397677  0.45018040     0.44200
H2588       H  0.21759091  0.62370916  0.43093024     0.44100
C2589       C  0.10061098  0.71652834  0.41790182    -0.04900
C2590       C  0.11221860  0.73443291  0.44309891    -0.32400
C2591       C  0.09087741  0.74848566  0.46427866     0.36900
C2592       C  0.05772585  0.74354716  0.46054024    -0.05300
C2593       C  0.04641304  0.72831691  0.43346638    -0.32300
C2594       C  0.06762728  0.71502774  0.41202946     0.36800
H2595       H  0.13764184  0.73578809  0.44743541     0.17200
O2596       O  0.10274892  0.76396923  0.49018277    -0.59800
H2597       H  0.02104016  0.72484651  0.42999853     0.17200
O2598       O  0.05589062  0.69761497  0.38728103    -0.59900
H2599       H  0.05077491  0.71321994  0.37067124     0.44200
H2600       H  0.10779149  0.78551267  0.48262661     0.44100
C2601       C  0.97111673  0.70523203  0.52734284    -0.04900
C2602       C  0.97139197  0.69475890  0.55875772    -0.32400
C2603       C  0.94793431  0.67438353  0.56969522     0.36900
C2604       C  0.92424789  0.66382250  0.54893766    -0.05300
C2605       C  0.92499519  0.67266603  0.51708164    -0.32300
C2606       C  0.94827286  0.69356327  0.50614420     0.36800
H2607       H  0.98920069  0.70333270  0.57519382     0.17200
O2608       O  0.94747597  0.66589824  0.60096964    -0.59800
H2609       H  0.90704805  0.66423654  0.50099981     0.17200
O2610       O  0.94687428  0.70446740  0.47569769    -0.59900
H2611       H  0.95615431  0.68744244  0.46247329     0.44200
H2612       H  0.93560337  0.68293745  0.61195458     0.44100
C2613       C  0.03103179  0.79672459  0.55953933    -0.04900
C2614       C  0.01985169  0.79121893  0.59051910    -0.32400
C2615       C  0.02951387  0.81046012  0.61537942     0.36900
C2616       C  0.05055612  0.83527895  0.60931533    -0.05300
C2617       C  0.06103384  0.84147334  0.57848715    -0.32300
C2618       C  0.05144298  0.82240833  0.55357409     0.36800
H2619       H  0.00416132  0.77158447  0.59572377     0.17200
O2620       O  0.01869982  0.80468177  0.64545025    -0.59800
H2621       H  0.07690127  0.86113889  0.57381611     0.17200
O2622       O  0.06160895  0.82947799  0.52353910    -0.59900
H2623       H  0.08443175  0.82338940  0.52281406     0.44200
H2624       H  0.99925008  0.81775737  0.64784300     0.44100
C2625       C  0.67756180  0.27869367  0.69464838    -0.04900
C2626       C  0.68197635  0.27299952  0.66228476    -0.32400
C2627       C  0.66633924  0.29125546  0.64002077     0.36900
C2628       C  0.64583965  0.31535551  0.65022849    -0.05300
C2629       C  0.63807560  0.31813610  0.68253551    -0.32300
C2630       C  0.65391735  0.29974162  0.70493345     0.36800
H2631       H  0.69966186  0.25612212  0.65428173     0.17200
O2632       O  0.67397031  0.28777821  0.60863266    -0.59800
H2633       H  0.62236877  0.33681026  0.69053340     0.17200
O2634       O  0.64912059  0.30524934  0.73657293    -0.59900
H2635       H  0.62788358  0.29609024  0.74143963     0.44200
H2636       H  0.69328548  0.30091841  0.60531155     0.44100
C2637       C  0.70609422  0.20015860  0.77271306    -0.04900
C2638       C  0.72608680  0.17359458  0.77387487    -0.32400
C2639       C  0.71684131  0.14663133  0.79043345     0.36900
C2640       C  0.68766266  0.14623122  0.80680173    -0.05300
C2641       C  0.66732271  0.17233698  0.80517101    -0.32300
C2642       C  0.67626854  0.19918616  0.78827950     0.36800
H2643       H  0.74882854  0.17349620  0.76160974     0.17200
O2644       O  0.73707420  0.12132864  0.79173023    -0.59800
H2645       H  0.64500019  0.17235420  0.81819964     0.17200
O2646       O  0.65597848  0.22451182  0.78776041    -0.59900
H2647       H  0.66197563  0.23755319  0.80630614     0.44200
H2648       H  0.73167429  0.10828027  0.77301524     0.44100
C2649       C  0.78786606  0.25174970  0.70862991    -0.04900
C2650       C  0.81090261  0.23220296  0.72245697    -0.32400
C2651       C  0.83625998  0.22053316  0.70446037     0.36900
C2652       C  0.83851776  0.22808116  0.67219447    -0.05300
C2653       C  0.81878943  0.25131713  0.65967025    -0.32300
C2654       C  0.79377109  0.26369762  0.67785221     0.36800
H2655       H  0.80771457  0.22356166  0.74633230     0.17200
O2656       O  0.85636894  0.19872265  0.71747481    -0.59800
H2657       H  0.82119246  0.25803072  0.63508680     0.17200
O2658       O  0.77403245  0.28564415  0.66444352    -0.59900
H2659       H  0.76087427  0.27384264  0.64896036     0.44200
H2660       H  0.87465480  0.21111555  0.72564438     0.44100
C2661       C  0.46140008  0.23825172  0.53756082    -0.04900
C2662       C  0.47278284  0.20782959  0.54367750    -0.32400
C2663       C  0.46166180  0.19111728  0.56977296     0.36900
C2664       C  0.43886759  0.20499278  0.58980043    -0.05300
C2665       C  0.43039525  0.23670837  0.58573164    -0.32300
C2666       C  0.44180810  0.25354833  0.55971587     0.36800
H2667       H  0.48863190  0.19623533  0.52701458     0.17200
O2668       O  0.46995386  0.16005472  0.57326619    -0.59800
H2669       H  0.41232662  0.24725292  0.60078358     0.17200
O2670       O  0.43069861  0.28338197  0.55415966    -0.59900
H2671       H  0.44523399  0.29753424  0.56601633     0.44200
H2672       H  0.45577933  0.14817564  0.55875431     0.44100
C2673       C  0.48082300  0.22053956  0.42685195    -0.04900
C2674       C  0.47754332  0.18832238  0.43428198    -0.32400
C2675       C  0.49312230  0.16549622  0.41616534     0.36900
C2676       C  0.51095388  0.17477720  0.38973618    -0.05300
C2677       C  0.50959334  0.20610568  0.37930936    -0.32300
C2678       C  0.49445792  0.22901878  0.39760084     0.36800
H2679       H  0.46611020  0.18092113  0.45603785     0.17200
O2680       O  0.49286391  0.13463027  0.42570506    -0.59800
H2681       H  0.52278392  0.21332997  0.35845438     0.17200
O2682       O  0.49631713  0.25992714  0.38840516    -0.59900
H2683       H  0.47793881  0.26305451  0.37412114     0.44200
H2684       H  0.50877227  0.13338498  0.44293736     0.44100
C2685       C  0.52129535  0.31442052  0.47892662    -0.04900
C2686       C  0.55262253  0.30680039  0.46966035    -0.32400
C2687       C  0.57851862  0.32271831  0.48304399     0.36900
C2688       C  0.57283540  0.34695545  0.50490059    -0.05300
C2689       C  0.54157108  0.35708792  0.51093661    -0.32300
C2690       C  0.51579117  0.34091889  0.49810894     0.36800
H2691       H  0.55714846  0.28628510  0.45501226     0.17200
O2692       O  0.60904840  0.31323177  0.47624824    -0.59800
H2693       H  0.53715827  0.37606007  0.52760014     0.17200
O2694       O  0.48541549  0.34882618  0.50733761    -0.59900
H2695       H  0.47869267  0.36553019  0.49246525     0.44200
H2696       H  0.61442093  0.29767459  0.49282737     0.44100
C2697       C  0.64998757  0.10050292  0.43332229    -0.04900
C2698       C  0.68009048  0.11057757  0.44311796    -0.32400
C2699       C  0.69330646  0.09855357  0.47072604     0.36900
C2700       C  0.67604872  0.07614996  0.48870061    -0.05300
C2701       C  0.64527733  0.06724213  0.47909273    -0.32300
C2702       C  0.63227851  0.07922599  0.45160749     0.36800
H2703       H  0.69358155  0.12717255  0.42892488     0.17200
O2704       O  0.72309645  0.10860101  0.47952952    -0.59800
H2705       H  0.63135045  0.05030892  0.49240013     0.17200
O2706       O  0.60293796  0.06875305  0.44179274    -0.59900
H2707       H  0.58725225  0.08239694  0.45284925     0.44200
H2708       H  0.73821530  0.09567980  0.46690881     0.44100
C2709       C  0.66996375  0.99453919  0.56962414    -0.04900
C2710       C  0.68700157  0.97443640  0.58977473    -0.32400
C2711       C  0.67264086  0.94762756  0.60198309     0.36900
C2712       C  0.64113048  0.94058073  0.59371911    -0.05300
C2713       C  0.62358874  0.96107699  0.57477321    -0.32300
C2714       C  0.63766488  0.98814208  0.56288242     0.36800
H2715       H  0.71177136  0.97889886  0.59547762     0.17200
O2716       O  0.68985196  0.92775499  0.62083689    -0.59800
H2717       H  0.59914065  0.95556999  0.56854769     0.17200
O2718       O  0.61982631  0.00753253  0.54408406    -0.59900
H2719       H  0.61174054  0.02426516  0.55842046     0.44200
H2720       H  0.68845229  0.93702071  0.64233947     0.44100
C2721       C  0.76280263  0.06334435  0.56452893    -0.04900
C2722       C  0.78067384  0.08505401  0.54689231    -0.32400
C2723       C  0.80819594  0.09808865  0.55925568     0.36900
C2724       C  0.81816904  0.08928831  0.58950331    -0.05300
C2725       C  0.80191957  0.06613613  0.60649375    -0.32300
C2726       C  0.77405558  0.05316939  0.59429325     0.36800
H2727       H  0.77303000  0.09266359  0.52372544     0.17200
O2728       O  0.82476726  0.12026622  0.54222028    -0.59800
H2729       H  0.81034170  0.05892457  0.62954446     0.17200
O2730       O  0.75784582  0.03126971  0.61195780    -0.59900
H2731       H  0.74381712  0.04367214  0.62623490     0.44200
H2732       H  0.83379605  0.10876401  0.52383303     0.44100
C2733       C  0.46185080  0.04536629  0.74287157    -0.04900
C2734       C  0.47559140  0.05751674  0.71526273    -0.32400
C2735       C  0.46298433  0.08435380  0.70120004     0.36900
C2736       C  0.43591655  0.09871754  0.71464186    -0.05300
C2737       C  0.42512238  0.08904561  0.74463720    -0.32300
C2738       C  0.43783601  0.06214546  0.75870650     0.36800
H2739       H  0.49484729  0.04501027  0.70354859     0.17200
O2740       O  0.47426305  0.09348369  0.67216572    -0.59800
H2741       H  0.40423575  0.09995081  0.75513214     0.17200
O2742       O  0.42491634  0.05101955  0.78636302    -0.59900
H2743       H  0.40747788  0.03660098  0.77983448     0.44200
H2744       H  0.49243677  0.10774309  0.67676124     0.44100
C2745       C  0.58914612  0.01297376  0.83564710    -0.04900
C2746       C  0.59313653  0.99171222  0.81055449    -0.32400
C2747       C  0.56640802  0.97870180  0.79555019     0.36900
C2748       C  0.53550677  0.98746879  0.80557231    -0.05300
C2749       C  0.53181978  0.00638258  0.83244342    -0.32300
C2750       C  0.55825195  0.01931924  0.84733394     0.36800
H2751       H  0.61682983  0.98645577  0.80169937     0.17200
O2752       O  0.57074701  0.96049085  0.76905877    -0.59800
H2753       H  0.50821294  0.01350824  0.84019602     0.17200
O2754       O  0.55351274  0.04067551  0.87131722    -0.59900
H2755       H  0.54825790  0.02786873  0.89021225     0.44200
H2756       H  0.57029477  0.93844688  0.77674075     0.44100
C2757       C  0.48106378  0.93551478  0.71751015    -0.04900
C2758       C  0.47323437  0.94255406  0.68593937    -0.32400
C2759       C  0.48320456  0.92273765  0.66135378     0.36900
C2760       C  0.50095510  0.89569668  0.66841443    -0.05300
C2761       C  0.50326985  0.88576510  0.69992838    -0.32300
C2762       C  0.49366068  0.90560177  0.72452672     0.36800
H2763       H  0.46251843  0.96493248  0.67990763     0.17200
O2764       O  0.47920907  0.93199099  0.63061877    -0.59800
H2765       H  0.51606121  0.86437674  0.70567261     0.17200
O2766       O  0.49879745  0.89652520  0.75520311    -0.59900
H2767       H  0.52222864  0.89764999  0.75826131     0.44200
H2768       H  0.45874592  0.92230852  0.62399274     0.44100
C2769       C  0.47170377  0.52481979  0.20256768    -0.04900
C2770       C  0.44919632  0.53211588  0.22600713    -0.32400
C2771       C  0.42006709  0.54538749  0.21788181     0.36900
C2772       C  0.41275686  0.55027531  0.18592606    -0.05300
C2773       C  0.43355406  0.53915336  0.16238942    -0.32300
C2774       C  0.46310496  0.52645609  0.17054922     0.36800
H2775       H  0.45565500  0.53092992  0.25076332     0.17200
O2776       O  0.40045388  0.55630221  0.24134514    -0.59800
H2777       H  0.42813173  0.54307079  0.13769292     0.17200
O2778       O  0.48496616  0.52018608  0.14718346    -0.59900
H2779       H  0.48283762  0.49729818  0.14292052     0.44200
H2780       H  0.40973534  0.57671227  0.24818073     0.44100
C2781       C  0.62184888  0.43456009  0.17587387    -0.04900
C2782       C  0.63380278  0.45917012  0.19445272    -0.32400
C2783       C  0.61383439  0.48388225  0.20397897     0.36900
C2784       C  0.58136229  0.48398871  0.19481390    -0.05300
C2785       C  0.57021772  0.45995546  0.17477116    -0.32300
C2786       C  0.59015032  0.43555280  0.16525672     0.36800
H2787       H  0.65836792  0.45872297  0.20229813     0.17200
O2788       O  0.62631348  0.50745464  0.22243244    -0.59800
H2789       H  0.54569368  0.45952727  0.16682891     0.17200
O2790       O  0.57811382  0.41204890  0.14639691    -0.59900
H2791       H  0.58305137  0.41865694  0.12445483     0.44200
H2792       H  0.62550703  0.49925407  0.24434832     0.44100
C2793       C  0.48454752  0.69167429  0.08631120    -0.04900
C2794       C  0.47175196  0.71516258  0.10630813    -0.32400
C2795       C  0.44247053  0.71044888  0.12177826     0.36900
C2796       C  0.42602431  0.68198526  0.11745161    -0.05300
C2797       C  0.43884391  0.65854331  0.09797547    -0.32300
C2798       C  0.46781454  0.66291857  0.08274451     0.36800
H2799       H  0.48405331  0.73740321  0.10947246     0.17200
O2800       O  0.43023116  0.73353682  0.14100775    -0.59800
H2801       H  0.42615080  0.63649593  0.09462197     0.17200
O2802       O  0.47914746  0.63886221  0.06413770    -0.59900
H2803       H  0.49184291  0.62543572  0.07849877     0.44200
H2804       H  0.41654894  0.74648239  0.12709902     0.44100
C2805       C  0.57684851  0.75844268  0.05822541    -0.04900
C2806       C  0.58891766  0.77323569  0.03091147    -0.32400
C2807       C  0.60494085  0.80199818  0.03306890     0.36900
C2808       C  0.60917498  0.81592830  0.06278934    -0.05300
C2809       C  0.59817675  0.80072318  0.09012379    -0.32300
C2810       C  0.58209931  0.77208274  0.08802476     0.36800
H2811       H  0.58506009  0.76299156  0.00774671     0.17200
O2812       O  0.61516036  0.81688397  0.00613495    -0.59800
H2813       H  0.60174697  0.81143374  0.11313593     0.17200
O2814       O  0.57165526  0.75767430  0.11514291    -0.59900
H2815       H  0.58951522  0.74392128  0.12173662     0.44200
H2816       H  0.63565226  0.80666801  0.00044186     0.44100
C2817       C  0.56830515  0.63147464  0.94211254    -0.04900
C2818       C  0.53717697  0.63123070  0.95393679    -0.32400
C2819       C  0.52997576  0.64732714  0.98180076     0.36900
C2820       C  0.55433574  0.66382119  0.99786487    -0.05300
C2821       C  0.58571055  0.66306985  0.98620922    -0.32300
C2822       C  0.59272918  0.64720289  0.95831973     0.36800
H2823       H  0.51838630  0.61924647  0.94108183     0.17200
O2824       O  0.49882217  0.64865083  0.99177545    -0.59800
H2825       H  0.60473369  0.67542851  0.99832972     0.17200
O2826       O  0.62333284  0.64753981  0.94667881    -0.59900
H2827       H  0.62482880  0.66697008  0.93378920     0.44200
H2828       H  0.49427749  0.62765047  0.00098313     0.44100
C2829       C  0.76144993  0.44144977  0.03061527    -0.04900
C2830       C  0.77834038  0.44080869  0.05942942    -0.32400
C2831       C  0.77206346  0.41750940  0.08195837     0.36900
C2832       C  0.74906501  0.39437134  0.07558355    -0.05300
C2833       C  0.73681399  0.39162997  0.04486693    -0.32300
C2834       C  0.74301891  0.41485735  0.02229502     0.36800
H2835       H  0.79409147  0.46001407  0.06590918     0.17200
O2836       O  0.78623130  0.41914894  0.11108289    -0.59800
H2837       H  0.71954231  0.37337448  0.03945957     0.17200
O2838       O  0.72798627  0.41290624  0.99368145    -0.59900
H2839       H  0.74421668  0.40425721  0.97892408     0.44200
H2840       H  0.77261068  0.43348783  0.12382028     0.44100
C2841       C  0.80250536  0.58965670  0.08311820    -0.04900
C2842       C  0.80747980  0.59499147  0.05060609    -0.32400
C2843       C  0.79049333  0.57771227  0.02784052     0.36900
C2844       C  0.76864538  0.55455389  0.03769915    -0.05300
C2845       C  0.76101198  0.55214906  0.07000730    -0.32300
C2846       C  0.77791313  0.56930208  0.09268764     0.36800
H2847       H  0.82659730  0.61045238  0.04296635     0.17200
O2848       O  0.79839974  0.58075922  0.99652027    -0.59800
H2849       H  0.74417029  0.53441213  0.07793808     0.17200
O2850       O  0.77284616  0.56318939  0.12413524    -0.59900
H2851       H  0.78591863  0.54431458  0.12878150     0.44200
H2852       H  0.78162389  0.59445359  0.98750098     0.44100
C2853       C  0.66553670  0.51511686  0.89934546    -0.04900
C2854       C  0.66893050  0.48578670  0.91385538    -0.32400
C2855       C  0.69226168  0.48103567  0.93701253     0.36900
C2856       C  0.71298426  0.50595367  0.94598179    -0.05300
C2857       C  0.71108026  0.53453484  0.92935446    -0.32300
C2858       C  0.68775015  0.53913713  0.90616161     0.36800
H2859       H  0.65174858  0.46726589  0.90913489     0.17200
O2860       O  0.69292027  0.45255780  0.95214412    -0.59800
H2861       H  0.72680194  0.55393436  0.93528633     0.17200
O2862       O  0.68492729  0.56817472  0.89233189    -0.59900
H2863       H  0.69954507  0.56758143  0.87385115     0.44200
H2864       H  0.67669226  0.45420607  0.96920426     0.44100
C2865       C  0.56919589  0.62612425  0.30194395    -0.04900
C2866       C  0.54626755  0.63143513  0.27877584    -0.32400
C2867       C  0.53944428  0.60797600  0.25663308     0.36900
C2868       C  0.55611351  0.57907379  0.25745954    -0.05300
C2869       C  0.58040486  0.57467603  0.27960752    -0.32300
C2870       C  0.58692955  0.59802862  0.30188580     0.36800
H2871       H  0.53285564  0.65323505  0.27865233     0.17200
O2872       O  0.51656461  0.61350371  0.23422057    -0.59800
H2873       H  0.59328477  0.55258823  0.28060735     0.17200
O2874       O  0.60958304  0.59267263  0.32453300    -0.59900
H2875       H  0.62965941  0.60138281  0.31564387     0.44200
H2876       H  0.49584406  0.61066620  0.24528302     0.44100
C2877       C  0.71421388  0.77858472  0.30527812    -0.04900
C2878       C  0.68338285  0.78954733  0.29799274    -0.32400
C2879       C  0.65691379  0.77976719  0.31590736     0.36900
C2880       C  0.66130454  0.75913670  0.34141500    -0.05300
C2881       C  0.69234907  0.75198023  0.35123122    -0.32300
C2882       C  0.71868621  0.76173393  0.33363169     0.36800
H2883       H  0.67934682  0.80349913  0.27699950     0.17200
O2884       O  0.62681859  0.78907434  0.30746709    -0.59800
H2885       H  0.69613442  0.73654780  0.37122643     0.17200
O2886       O  0.74843314  0.75222078  0.34300211    -0.59900
H2887       H  0.75780359  0.77075147  0.35388962     0.44200
H2888       H  0.62097632  0.77561003  0.28918927     0.44100
C2889       C  0.83087197  0.67388179  0.22627019    -0.04900
C2890       C  0.84705288  0.70289906  0.22517534    -0.32400
C2891       C  0.83432855  0.72944140  0.23975552     0.36900
C2892       C  0.80474455  0.72731107  0.25518879    -0.05300
C2893       C  0.79004721  0.69773170  0.25900085    -0.32300
C2894       C  0.80295324  0.67097536  0.24440526     0.36800
H2895       H  0.86892969  0.70530929  0.21162801     0.17200
O2896       O  0.84941133  0.75795968  0.23633157    -0.59800
H2897       H  0.76710013  0.69584499  0.27074619     0.17200
O2898       O  0.78774411  0.64246896  0.24709803    -0.59900
H2899       H  0.77037634  0.64295664  0.23127388     0.44200
H2900       H  0.86647531  0.75805697  0.25249053     0.44100
C2901       C  0.75037196  0.80723103  0.19919099    -0.04900
C2902       C  0.77360332  0.82319183  0.18129087    -0.32400
C2903       C  0.76501982  0.83788803  0.15292117     0.36900
C2904       C  0.73320208  0.83589953  0.14257359    -0.05300
C2905       C  0.71192140  0.81534608  0.15774978    -0.32300
C2906       C  0.72014658  0.80147608  0.18619530     0.36800
H2907       H  0.79752766  0.82624019  0.19041528     0.17200
O2908       O  0.78647932  0.85694162  0.13750783    -0.59800
H2909       H  0.68743766  0.81339401  0.14979470     0.17200
O2910       O  0.69785639  0.78369888  0.20196095    -0.59900
H2911       H  0.70296664  0.76154119  0.19646067     0.44200
H2912       H  0.78780934  0.87647223  0.15037811     0.44100
C2913       C  0.28862590  0.57409605  0.00168577    -0.04900
C2914       C  0.29681975  0.58361825  0.97102255    -0.32400
C2915       C  0.32692879  0.59566984  0.96446712     0.36900
C2916       C  0.34973195  0.59846701  0.98872316    -0.05300
C2917       C  0.34099838  0.59143570  0.01988980    -0.32300
C2918       C  0.31051584  0.57943365  0.02654152     0.36800
H2919       H  0.28058812  0.58013467  0.95146591     0.17200
O2920       O  0.33437070  0.60370663  0.93389615    -0.59800
H2921       H  0.35787163  0.59496184  0.03890162     0.17200
O2922       O  0.30276942  0.57215500  0.05718602    -0.59900
H2923       H  0.28902982  0.58972196  0.06453214     0.44200
H2924       H  0.32365738  0.62418877  0.93026760     0.44100
C2925       C  0.20261845  0.51750119  0.95149943    -0.04900
C2926       C  0.21319017  0.49012749  0.93624207    -0.32400
C2927       C  0.19471728  0.47578101  0.91310839     0.36900
C2928       C  0.16541840  0.48934120  0.90446163    -0.05300
C2929       C  0.15657640  0.51876043  0.91724095    -0.32300
C2930       C  0.17483654  0.53264475  0.94122844     0.36800
H2931       H  0.23464613  0.47836683  0.94418234     0.17200
O2932       O  0.20340356  0.44651115  0.90222622    -0.59800
H2933       H  0.13395848  0.52925343  0.91087328     0.17200
O2934       O  0.16405936  0.55933249  0.95614932    -0.59900
H2935       H  0.14968999  0.55172202  0.97319145     0.44200
H2936       H  0.22157562  0.45025550  0.88761546     0.44100
C2937       C  0.24828445  0.47841329  0.04679312    -0.04900
C2938       C  0.24733588  0.44843057  0.03243510    -0.32400
C2939       C  0.26264972  0.42280237  0.04639351     0.36900
C2940       C  0.27837196  0.42698407  0.07524485    -0.05300
C2941       C  0.27698889  0.45621873  0.09083409    -0.32300
C2942       C  0.26205780  0.48185949  0.07683185     0.36800
H2943       H  0.23690049  0.44531975  0.00924841     0.17200
O2944       O  0.26302668  0.39412553  0.03135239    -0.59800
H2945       H  0.28892037  0.45949831  0.11328793     0.17200
O2946       O  0.26286193  0.51060236  0.09175058    -0.59900
H2947       H  0.24117842  0.51351592  0.10074466     0.44200
H2948       H  0.27962377  0.39599263  0.01468224     0.44100
C2949       C  0.51547269  0.42629572  0.77164672    -0.04900
C2950       C  0.53601176  0.41766746  0.74676572    -0.32400
C2951       C  0.55787060  0.39322083  0.75076082     0.36900
C2952       C  0.55876615  0.37706187  0.77965222    -0.05300
C2953       C  0.53513682  0.38261510  0.80253692    -0.32300
C2954       C  0.51359542  0.40724530  0.79875654     0.36800
H2955       H  0.53701958  0.43150567  0.72530760     0.17200
O2956       O  0.58028966  0.38731786  0.72776579    -0.59800
H2957       H  0.53567927  0.37018299  0.82487248     0.17200
O2958       O  0.49223692  0.41370694  0.82254875    -0.59900
H2959       H  0.47189539  0.40395493  0.81566168     0.44200
H2960       H  0.59705440  0.40357098  0.73073261     0.44100
C2961       C  0.46578693  0.51864651  0.82188963    -0.04900
C2962       C  0.48865820  0.52447605  0.84542422    -0.32400
C2963       C  0.48238807  0.54654903  0.86937463     0.36900
C2964       C  0.45290529  0.56221570  0.86985843    -0.05300
C2965       C  0.42938713  0.55450979  0.84784189    -0.32300
C2966       C  0.43557051  0.53291312  0.82401848     0.36800
H2967       H  0.51189500  0.51339273  0.84416844     0.17200
O2968       O  0.50536410  0.55354550  0.89130478    -0.59800
H2969       H  0.40658110  0.56652529  0.84831047     0.17200
O2970       O  0.41225950  0.52686999  0.80216675    -0.59900
H2971       H  0.40098661  0.50788502  0.81006646     0.44200
H2972       H  0.51939527  0.56937034  0.88104188     0.44100
C2973       C  0.45189120  0.49803175  0.70984708    -0.04900
C2974       C  0.46893851  0.49585536  0.68140330    -0.32400
C2975       C  0.45359236  0.48570124  0.65407003     0.36900
C2976       C  0.42109301  0.47780173  0.65554579    -0.05300
C2977       C  0.40314990  0.48497840  0.68257015    -0.32300
C2978       C  0.41843071  0.49531885  0.70986629     0.36800
H2979       H  0.49470338  0.49806016  0.68130902     0.17200
O2980       O  0.47127577  0.47918888  0.62747880    -0.59800
H2981       H  0.37810570  0.47865037  0.68373417     0.17200
O2982       O  0.40138008  0.49692312  0.73756683    -0.59900
H2983       H  0.39094607  0.51786272  0.73727960     0.44200
H2984       H  0.47971659  0.45761191  0.63064654     0.44100
C2985       C  0.52352924  0.26030871  0.92902805    -0.04900
C2986       C  0.54668703  0.23708595  0.92315592    -0.32400
C2987       C  0.56945336  0.24142685  0.89913979     0.36900
C2988       C  0.56878174  0.26918582  0.88103068    -0.05300
C2989       C  0.54268272  0.28963867  0.88385822    -0.32300
C2990       C  0.52015660  0.28540503  0.90766289     0.36800
H2991       H  0.54880305  0.21698771  0.93872587     0.17200
O2992       O  0.59367125  0.22000796  0.89514798    -0.59800
H2993       H  0.54139151  0.31077764  0.86961063     0.17200
O2994       O  0.49554365  0.30653889  0.91053038    -0.59900
H2995       H  0.50522250  0.32598976  0.91937637     0.44200
H2996       H  0.60645039  0.22089514  0.91480785     0.44100
C2997       C  0.46228765  0.31609135  0.00966281    -0.04900
C2998       C  0.42919830  0.31671881  0.00565826    -0.32400
C2999       C  0.41019215  0.33446661  0.02588137     0.36900
C3000       C  0.42457002  0.35287373  0.04959053    -0.05300
C3001       C  0.45797610  0.35591549  0.05036253    -0.32300
C3002       C  0.47700768  0.33719151  0.03061491     0.36800
H3003       H  0.41783023  0.30035580  0.98948233     0.17200
O3004       O  0.37770452  0.33052035  0.02488501    -0.59800
H3005       H  0.46917022  0.36999898  0.06863152     0.17200
O3006       O  0.50941666  0.33665091  0.03480614    -0.59900
H3007       H  0.51760607  0.35513152  0.02298587     0.44200
H3008       H  0.37312755  0.31232564  0.03886663     0.44100
C3009       C  0.45925923  0.20366861  0.00690694    -0.04900
C3010       C  0.42775733  0.20715950  0.01823138    -0.32400
C3011       C  0.40504389  0.18381047  0.01234663     0.36900
C3012       C  0.41403913  0.15695892  0.99512230    -0.05300
C3013       C  0.44654624  0.15067964  0.99006845    -0.32300
C3014       C  0.46929246  0.17399549  0.99592406     0.36800
H3015       H  0.41959052  0.22946837  0.02775135     0.17200
O3016       O  0.37350923  0.18966668  0.01880052    -0.59800
H3017       H  0.45388343  0.12938888  0.97785898     0.17200
O3018       O  0.50067057  0.16868535  0.98815632    -0.59900
H3019       H  0.50148195  0.16807216  0.96472321     0.44200
H3020       H  0.36828990  0.17628575  0.03729716     0.44100
C3021       C  0.32547248  0.19161538  0.86054192    -0.04900
C3022       C  0.30571327  0.21513166  0.87294567    -0.32400
C3023       C  0.29787668  0.24129004  0.85474412     0.36900
C3024       C  0.30932023  0.24365219  0.82337656    -0.05300
C3025       C  0.33041204  0.22068160  0.81170336    -0.32300
C3026       C  0.33855857  0.19480501  0.83011486     0.36800
H3027       H  0.29620592  0.21301654  0.89670671     0.17200
O3028       O  0.27906623  0.26427043  0.86791545    -0.59800
H3029       H  0.34006773  0.22227221  0.78796750     0.17200
O3030       O  0.35949216  0.17279540  0.81841271    -0.59900
H3031       H  0.34704301  0.16009695  0.80307485     0.44200
H3032       H  0.29417818  0.28039690  0.87594076     0.44100
C3033       C  0.32702208  0.31115355  0.73105940    -0.04900
C3034       C  0.32856936  0.34384370  0.72701521    -0.32400
C3035       C  0.34334472  0.35661326  0.70074320     0.36900
C3036       C  0.35743156  0.33654014  0.67822539    -0.05300
C3037       C  0.35691029  0.30377789  0.68259227    -0.32300
C3038       C  0.34163553  0.29092070  0.70903813     0.36800
H3039       H  0.31716117  0.35964817  0.74376385     0.17200
O3040       O  0.34153316  0.38853087  0.69584572    -0.59800
H3041       H  0.36720976  0.28829139  0.66489695     0.17200
O3042       O  0.33957109  0.25883224  0.71221506    -0.59900
H3043       H  0.31926950  0.25282850  0.70183347     0.44200
H3044       H  0.35698234  0.39806625  0.71078541     0.44100
C3045       C  0.23479691  0.32855208  0.79565984    -0.04900
C3046       C  0.21726735  0.34080478  0.77023743    -0.32400
C3047       C  0.19247687  0.36189796  0.77563464     0.36900
C3048       C  0.18524954  0.37097265  0.80667715    -0.05300
C3049       C  0.20327215  0.35964355  0.83199317    -0.32300
C3050       C  0.22781171  0.33823339  0.82670199     0.36800
H3051       H  0.22257534  0.33367620  0.74616551     0.17200
O3052       O  0.17429379  0.37204901  0.75080789    -0.59800
H3053       H  0.19722618  0.36630069  0.85604218     0.17200
O3054       O  0.24535755  0.32771673  0.85181482    -0.59900
H3055       H  0.23218637  0.31092538  0.86163442     0.44200
H3056       H  0.18084342  0.39422426  0.74731354     0.44100
C3057       C  0.41983062  0.81166911  0.52088438    -0.04900
C3058       C  0.43239007  0.83822915  0.53622665    -0.32400
C3059       C  0.42195356  0.84647635  0.56622674     0.36900
C3060       C  0.39825497  0.82839031  0.58121089    -0.05300
C3061       C  0.38649831  0.80111810  0.56685564    -0.32300
C3062       C  0.39709993  0.79262019  0.53667447     0.36800
H3063       H  0.44992073  0.85315216  0.52475520     0.17200
O3064       O  0.43396994  0.87312971  0.58030109    -0.59800
H3065       H  0.36864855  0.78691131  0.57866229     0.17200
O3066       O  0.38556867  0.76547915  0.52320405    -0.59900
H3067       H  0.36440593  0.77117857  0.51455324     0.44200
H3068       H  0.45237600  0.86582028  0.59294194     0.44100
C3069       C  0.29613740  0.00242544  0.56757208    -0.04900
C3070       C  0.32934164  0.00441584  0.56263422    -0.32400
C3071       C  0.35026385  0.98889715  0.58274002     0.36900
C3072       C  0.33803905  0.97241684  0.60865706    -0.05300
C3073       C  0.30536923  0.97377294  0.61590231    -0.32300
C3074       C  0.28428898  0.98849103  0.59532675     0.36800
H3075       H  0.33900605  0.01522172  0.54148618     0.17200
O3076       O  0.38220467  0.98791059  0.57561461    -0.59800
H3077       H  0.29594620  0.96095855  0.63601539     0.17200
O3078       O  0.25212239  0.98689484  0.60120213    -0.59900
H3079       H  0.24683069  0.00692297  0.61214010     0.44200
H3080       H  0.38492571  0.96910887  0.56188567     0.44100
C3081       C  0.28636460  0.05090759  0.46560975    -0.04900
C3082       C  0.28206137  0.04260623  0.43366018    -0.32400
C3083       C  0.29988088  0.05739308  0.40992813     0.36900
C3084       C  0.32236834  0.08042980  0.41817843    -0.05300
C3085       C  0.32646339  0.08895894  0.44984326    -0.32300
C3086       C  0.30856363  0.07467342  0.47348526     0.36800
H3087       H  0.26517607  0.02442699  0.42704014     0.17200
O3088       O  0.29422905  0.05027813  0.37881966    -0.59800
H3089       H  0.34289046  0.10771386  0.45610367     0.17200
O3090       O  0.31216308  0.08495031  0.50406967    -0.59900
H3091       H  0.33293297  0.07635213  0.51111947     0.44200
H3092       H  0.30823616  0.03206764  0.37402060     0.44100
C3093       C  0.21188968  0.96776237  0.49625319    -0.04900
C3094       C  0.18995725  0.97525465  0.47249668    -0.32400
C3095       C  0.17095740  0.95192015  0.45898351     0.36900
C3096       C  0.17428912  0.92042947  0.46859327    -0.05300
C3097       C  0.19482249  0.91292125  0.49337608    -0.32300
C3098       C  0.21345765  0.93643286  0.50748333     0.36800
H3099       H  0.18812568  0.99916169  0.46376764     0.17200
O3100       O  0.15022311  0.95979144  0.43528743    -0.59800
H3101       H  0.19694649  0.88874140  0.50120876     0.17200
O3102       O  0.23402426  0.92820687  0.53117941    -0.59900
H3103       H  0.25422303  0.92244394  0.52034178     0.44200
H3104       H  0.12983172  0.96481245  0.44615374     0.44100
C3105       C  0.56088948  0.83970435  0.41471234    -0.04900
C3106       C  0.54415261  0.85928388  0.43570396    -0.32400
C3107       C  0.51458837  0.84973603  0.44783444     0.36900
C3108       C  0.50149841  0.82059804  0.43834696    -0.05300
C3109       C  0.51882315  0.80091762  0.41787241    -0.32300
C3110       C  0.54824936  0.81032626  0.40601712     0.36800
H3111       H  0.55362653  0.88224370  0.44189808     0.17200
O3112       O  0.49787405  0.86979022  0.46722235    -0.59800
H3113       H  0.50940698  0.77820695  0.41071209     0.17200
O3114       O  0.56434785  0.79096209  0.38539771    -0.59900
H3115       H  0.55477096  0.79496250  0.36439867     0.44200
H3116       H  0.50692774  0.86662082  0.48859010     0.44100
C3117       C  0.54478949  0.93903805  0.24684377    -0.04900
C3118       C  0.54590982  0.90663214  0.23911671    -0.32400
C3119       C  0.57116959  0.88786668  0.24920585     0.36900
C3120       C  0.59550110  0.90155739  0.26720626    -0.05300
C3121       C  0.59738293  0.93448075  0.26983154    -0.32300
C3122       C  0.57211765  0.95332984  0.25989280     0.36800
H3123       H  0.52587937  0.89506878  0.22788695     0.17200
O3124       O  0.56939637  0.85577738  0.24559460    -0.59800
H3125       H  0.61668182  0.94530409  0.28296750     0.17200
O3126       O  0.57358633  0.98524399  0.26497618    -0.59900
H3127       H  0.56944541  0.98819313  0.28790001     0.44200
H3128       H  0.58712332  0.85020982  0.23102546     0.44100
C3129       C  0.43037573  0.93650211  0.22256135    -0.04900
C3130       C  0.40016312  0.95047586  0.22693044    -0.32400
C3131       C  0.37464289  0.94198074  0.20780507     0.36900
C3132       C  0.37924120  0.91912227  0.18439498    -0.05300
C3133       C  0.40769814  0.90196315  0.18302132    -0.32300
C3134       C  0.43342715  0.91056425  0.20188941     0.36800
H3135       H  0.39686601  0.96981629  0.24338686     0.17200
O3136       O  0.34672435  0.95870727  0.20952408    -0.59800
H3137       H  0.41093773  0.88390405  0.16512243     0.17200
O3138       O  0.46188856  0.89507611  0.19807555    -0.59900
H3139       H  0.47165693  0.90412035  0.17871667     0.44200
H3140       H  0.33196674  0.94532150  0.22203116     0.44100
C3141       C  0.47352319  0.03005803  0.27099795    -0.04900
C3142       C  0.48761960  0.04023743  0.29930995    -0.32400
C3143       C  0.47377760  0.06501150  0.31673277     0.36900
C3144       C  0.44537011  0.07896509  0.30598487    -0.05300
C3145       C  0.43287522  0.07020753  0.27670051    -0.32300
C3146       C  0.44740749  0.04693281  0.25870067     0.36800
H3147       H  0.50795708  0.02782888  0.30885670     0.17200
O3148       O  0.48763269  0.07507947  0.34430823    -0.59800
H3149       H  0.41153412  0.08147929  0.26783343     0.17200
O3150       O  0.43453240  0.03939521  0.22987003    -0.59900
H3151       H  0.44869739  0.04959223  0.21408063     0.44200
H3152       H  0.48371725  0.05805685  0.35984704     0.44100
C3153       C  0.39330451  0.69911891  0.38781719    -0.04900
C3154       C  0.40727761  0.72456280  0.37192434    -0.32400
C3155       C  0.41473416  0.75210440  0.38821095     0.36900
C3156       C  0.40911996  0.75392444  0.42103971    -0.05300
C3157       C  0.39261528  0.72943985  0.43629317    -0.32300
C3158       C  0.38448756  0.70217176  0.41975781     0.36800
H3159       H  0.41313980  0.72268744  0.34701477     0.17200
O3160       O  0.42877148  0.77651946  0.37211377    -0.59800
H3161       H  0.38768311  0.73055053  0.46142656     0.17200
O3162       O  0.36936691  0.67804426  0.43531783    -0.59900
H3163       H  0.34686669  0.67889616  0.42823251     0.44200
H3164       H  0.41104328  0.79101220  0.36689206     0.44100
C3165       C  0.19261569  0.82076259  0.33733043    -0.04900
C3166       C  0.20119404  0.83705728  0.30998439    -0.32400
C3167       C  0.21481537  0.82103367  0.28458215     0.36900
C3168       C  0.21876045  0.78794863  0.28601905    -0.05300
C3169       C  0.21445463  0.77262739  0.31510416    -0.32300
C3170       C  0.20178880  0.78908964  0.34096753     0.36800
H3171       H  0.19467438  0.86159709  0.30727893     0.17200
O3172       O  0.22197906  0.83766493  0.25771271    -0.59800
H3173       H  0.21843900  0.74750336  0.31710870     0.17200
O3174       O  0.19448422  0.77310011  0.36817471    -0.59900
H3175       H  0.21064402  0.78007596  0.38376283     0.44200
H3176       H  0.24529331  0.84152771  0.25870479     0.44100
C3177       C  0.26594635  0.69796872  0.23102673    -0.04900
C3178       C  0.29740749  0.70078660  0.21988755    -0.32400
C3179       C  0.32094858  0.68010753  0.23048403     0.36900
C3180       C  0.31266291  0.65612860  0.25172482    -0.05300
C3181       C  0.28049302  0.65074778  0.25928899    -0.32300
C3182       C  0.25717304  0.67197185  0.24958904     0.36800
H3183       H  0.30438349  0.72093260  0.20575954     0.17200
O3184       O  0.35230503  0.68556444  0.22292983    -0.59800
H3185       H  0.27400531  0.63215988  0.27562931     0.17200
O3186       O  0.22635659  0.66842805  0.26009211    -0.59900
H3187       H  0.22617981  0.67692679  0.28196026     0.44200
H3188       H  0.35460450  0.67841088  0.20072192     0.44100
C3189       C  0.24379430  0.83802153  0.13457672    -0.04900
C3190       C  0.21649716  0.84121771  0.15329648    -0.32400
C3191       C  0.20599569  0.81596068  0.17173505     0.36900
C3192       C  0.22371058  0.78760426  0.17217201    -0.05300
C3193       C  0.24763514  0.78293953  0.14941017    -0.32300
C3194       C  0.25805373  0.80812274  0.13093266     0.36800
H3195       H  0.20507347  0.86397498  0.15572521     0.17200
O3196       O  0.18094675  0.82059054  0.19217519    -0.59800
H3197       H  0.26116457  0.76121518  0.14875479     0.17200
O3198       O  0.28455668  0.80430063  0.11216476    -0.59900
H3199       H  0.30303796  0.80813580  0.12623277     0.44200
H3200       H  0.16188706  0.81296291  0.18066272     0.44100
C3201       C  0.94020124  0.98502690  0.69763155    -0.04900
C3202       C  0.91824679  0.00969252  0.69261054    -0.32400
C3203       C  0.88932607  0.00415457  0.67748307     0.36900
C3204       C  0.88207342  0.97374261  0.66690416    -0.05300
C3205       C  0.90341282  0.94894764  0.67228209    -0.32300
C3206       C  0.93226441  0.95429288  0.68757767     0.36800
H3207       H  0.92338309  0.03350861  0.70032442     0.17200
O3208       O  0.86893510  0.02878067  0.67206181    -0.59800
H3209       H  0.89802271  0.92547045  0.66362778     0.17200
O3210       O  0.95240392  0.92932845  0.69231406    -0.59900
H3211       H  0.96510292  0.92753003  0.67255513     0.44200
H3212       H  0.85156504  0.02637458  0.68785949     0.44100
C3213       C  0.02904860  0.95069849  0.76317361    -0.04900
C3214       C  0.04553580  0.92618849  0.74821793    -0.32400
C3215       C  0.06346089  0.90523428  0.76628236     0.36900
C3216       C  0.06460169  0.90890304  0.79931039    -0.05300
C3217       C  0.04630625  0.93200146  0.81430917    -0.32300
C3218       C  0.02854714  0.95290268  0.79644417     0.36800
H3219       H  0.04591178  0.92437342  0.72265954     0.17200
O3220       O  0.08176827  0.88284009  0.75151385    -0.59800
H3221       H  0.04750115  0.93503278  0.83972301     0.17200
O3222       O  0.01207325  0.97645083  0.81163411    -0.59900
H3223       H  0.98960274  0.96914065  0.81232149     0.44200
H3224       H  0.06691783  0.86532091  0.74656895     0.44100
C3225       C  0.99909715  0.05831661  0.76141238    -0.04900
C3226       C  0.00998771  0.05734628  0.79288075    -0.32400
C3227       C  0.99455320  0.07486053  0.81621398     0.36900
C3228       C  0.96949885  0.09469720  0.80766564    -0.05300
C3229       C  0.96279017  0.10015833  0.77577905    -0.32300
C3230       C  0.97765525  0.08221032  0.75247508     0.36800
H3231       H  0.02740535  0.04009415  0.80026877     0.17200
O3232       O  0.00250162  0.07084705  0.84735562    -0.59800
H3233       H  0.94422763  0.11660770  0.76921350     0.17200
O3234       O  0.96795383  0.08536712  0.72172114    -0.59900
H3235       H  0.98483056  0.09809686  0.71133165     0.44200
H3236       H  0.98873827  0.05338034  0.85494514     0.44100
C3237       C  0.91233698  0.73958478  0.92954772    -0.04900
C3238       C  0.88935537  0.72212269  0.94627813    -0.32400
C3239       C  0.87279104  0.69809164  0.93097275     0.36900
C3240       C  0.87937520  0.69209795  0.89901641    -0.05300
C3241       C  0.89823947  0.71294567  0.88143223    -0.32300
C3242       C  0.91442750  0.73702820  0.89650750     0.36800
H3243       H  0.88690629  0.72452518  0.97167178     0.17200
O3244       O  0.85236725  0.67905624  0.94771558    -0.59800
H3245       H  0.90284381  0.70869945  0.85654485     0.17200
O3246       O  0.93519296  0.75535797  0.87939867    -0.59900
H3247       H  0.92210857  0.77301264  0.87135983     0.44200
H3248       H  0.86609277  0.66308311  0.95793694     0.44100
C3249       C  0.95307162  0.78742210  0.02504745    -0.04900
C3250       C  0.97094032  0.81313284  0.03599338    -0.32400
C3251       C  0.96029643  0.83039070  0.06209080     0.36900
C3252       C  0.93172146  0.82175963  0.07728820    -0.05300
C3253       C  0.91497471  0.79500145  0.06766794    -0.32300
C3254       C  0.92571405  0.77751728  0.04199966     0.36800
H3255       H  0.99200431  0.82094426  0.02329915     0.17200
O3256       O  0.97743997  0.85603545  0.07224143    -0.59800
H3257       H  0.89318323  0.78813793  0.07971650     0.17200
O3258       O  0.90844833  0.75158260  0.03281342    -0.59900
H3259       H  0.92014196  0.73326940  0.04146413     0.44200
H3260       H  0.96940600  0.87402804  0.05970103     0.44100
C3261       C  0.02541298  0.76154046  0.93546922    -0.04900
C3262       C  0.05045704  0.77909359  0.94856350    -0.32400
C3263       C  0.07652903  0.78767987  0.92989900     0.36900
C3264       C  0.07764697  0.77859745  0.89786793    -0.05300
C3265       C  0.05508299  0.75758784  0.88598106    -0.32300
C3266       C  0.02925163  0.74852364  0.90470324     0.36800
H3267       H  0.04867609  0.78847086  0.97234549     0.17200
O3268       O  0.09941714  0.80722590  0.94232168    -0.59800
H3269       H  0.05623160  0.75013587  0.86148056     0.17200
O3270       O  0.00669372  0.72906994  0.89160477    -0.59900
H3271       H  0.01230385  0.70760258  0.89887196     0.44200
H3272       H  0.09211536  0.82891135  0.93758686     0.44100
C3273       C  0.79680648  0.02019081  0.93072997    -0.04900
C3274       C  0.82991058  0.01750843  0.92654843    -0.32400
C3275       C  0.84634564  0.03823797  0.90698968     0.36900
C3276       C  0.82947424  0.06166519  0.89067788    -0.05300
C3277       C  0.79587580  0.06138218  0.89129122    -0.32300
C3278       C  0.77941492  0.04079550  0.91144715     0.36800
H3279       H  0.84348473  0.00105078  0.94065791     0.17200
O3280       O  0.87908085  0.03756086  0.90670608    -0.59800
H3281       H  0.78268797  0.07937722  0.87881119     0.17200
O3282       O  0.74704071  0.04383253  0.91502740    -0.59900
H3283       H  0.73768903  0.02803618  0.90043139     0.44200
H3284       H  0.88575093  0.05149274  0.92435940     0.44100
C3285       C  0.71868007  0.94942595  0.97988456    -0.04900
C3286       C  0.72339580  0.91815122  0.98961327    -0.32400
C3287       C  0.70149699  0.89464333  0.98156139     0.36900
C3288       C  0.67426642  0.90244009  0.96405218    -0.05300
C3289       C  0.66839732  0.93407494  0.95635019    -0.32300
C3290       C  0.69049438  0.95752176  0.96402874     0.36800
H3291       H  0.74507767  0.91156829  0.00176248     0.17200
O3292       O  0.70783659  0.86394033  0.98922435    -0.59800
H3293       H  0.64735353  0.94033677  0.94298546     0.17200
O3294       O  0.68495815  0.98800275  0.95491478    -0.59900
H3295       H  0.67254763  0.99752811  0.97250683     0.44200
H3296       H  0.69368473  0.85928813  0.00743256     0.44100
C3297       C  0.81215668  0.98536100  0.03843479    -0.04900
C3298       C  0.80021121  0.97227028  0.06648308    -0.32400
C3299       C  0.82090694  0.96210163  0.08995639     0.36900
C3300       C  0.85408348  0.96545018  0.08582848    -0.05300
C3301       C  0.86606326  0.98113352  0.05934478    -0.32300
C3302       C  0.84538083  0.99120608  0.03564476     0.36800
H3303       H  0.77487396  0.96806485  0.06946367     0.17200
O3304       O  0.80865159  0.94677787  0.11584120    -0.59800
H3305       H  0.89160081  0.98348121  0.05599709     0.17200
O3306       O  0.85832743  0.00387028  0.00869711    -0.59900
H3307       H  0.86169248  0.02648788  0.01362227     0.44200
H3308       H  0.80767133  0.92423043  0.10967295     0.44100
C3309       C  0.78257554  0.70109085  0.73037911    -0.04900
C3310       C  0.81559201  0.70580698  0.72704954    -0.32400
C3311       C  0.83700996  0.68323091  0.73840726     0.36900
C3312       C  0.82524422  0.65532542  0.75207862    -0.05300
C3313       C  0.79251387  0.64863349  0.75054572    -0.32300
C3314       C  0.77112141  0.67156235  0.74038324     0.36800
H3315       H  0.82474224  0.72836833  0.71918630     0.17200
O3316       O  0.86902058  0.68998371  0.73919053    -0.59800
H3317       H  0.78317519  0.62734478  0.76127200     0.17200
O3318       O  0.73900934  0.66617274  0.74366328    -0.59900
H3319       H  0.73139380  0.66115510  0.72207085     0.44200
H3320       H  0.87210817  0.70300319  0.75845092     0.44100
C3321       C  0.70626758  0.76853598  0.78705739    -0.04900
C3322       C  0.69104988  0.79805706  0.78820366    -0.32400
C3323       C  0.67579409  0.80846487  0.81545328     0.36900
C3324       C  0.67498079  0.78931477  0.84236720    -0.05300
C3325       C  0.68980088  0.75972954  0.84171048    -0.32300
C3326       C  0.70550215  0.74923190  0.81425559     0.36800
H3327       H  0.69087532  0.81351610  0.76789252     0.17200
O3328       O  0.66035270  0.83695272  0.81519147    -0.59800
H3329       H  0.68838591  0.74449181  0.86216172     0.17200
O3330       O  0.71919660  0.71991823  0.81413423    -0.59900
H3331       H  0.74095013  0.72311627  0.82270577     0.44200
H3332       H  0.67689023  0.85275424  0.82069921     0.44100
C3333       C  0.76401158  0.86171524  0.65639540    -0.04900
C3334       C  0.78456881  0.83577228  0.65316918    -0.32400
C3335       C  0.77818121  0.80745035  0.66860631     0.36900
C3336       C  0.75099496  0.80490118  0.68811037    -0.05300
C3337       C  0.72961609  0.83056091  0.68990168    -0.32300
C3338       C  0.73593829  0.85874431  0.67405782     0.36800
H3339       H  0.80591968  0.83765993  0.63874884     0.17200
O3340       O  0.79897998  0.78279784  0.66483131    -0.59800
H3341       H  0.70817231  0.82913087  0.70420947     0.17200
O3342       O  0.71492053  0.88334980  0.67638937    -0.59900
H3343       H  0.69751198  0.87809960  0.66145994     0.44200
H3344       H  0.81649801  0.78693014  0.67997732     0.44100
loop_ 
_geom_bond_atom_site_label_1 
_geom_bond_atom_site_label_2 
_geom_bond_distance 
_geom_bond_site_symmetry_2 
_ccdc_geom_bond_type 
O1           C17   1.275       .  A
O1           Zn7   2.021       .  S
C2           O18   1.279       .  A
C2           O15   1.286       .  A
C2          C511   1.531       .  S
O3           C16   1.280       .  A
O3          Cd10   2.144       .  S
O4           C22   1.303       .  A
O4          Cd13   2.198       .  S
O5           C19   1.291       .  A
O5           Cd9   2.203       .  S
O6           C17   1.287       .  A
O6           Cd9   2.201       .  S
Zn7          O18   2.087       .  S
Zn7          O20   2.111       .  S
Zn7          O12   1.965       .  S
O8           C19   1.284       .  A
O8          Cd13   2.112       .  S
Cd9          O11   2.198       .  S
Cd9          O12   2.077       .  S
Cd10         O14   2.137       .  S
Cd10         O23   2.125       .  S
Cd10         O12   2.127       .  S
O11          C21   1.304       .  A
O12         Cd13   2.027       .  S
Cd13         O15   2.185       .  S
O14          C21   1.280       .  A
C16          O20   1.291       .  A
C16        C1013   1.537       .  S
C17        C1743   1.530       .  S
C19         C870   1.535       .  S
C21        C1372   1.538       .  S
C22          O23   1.277       .  A
C22        C1560   1.532       .  S
O24          C40   1.289       .  A
O24         Zn30   2.143       .  S
C25          O41   1.287       .  A
C25          O38   1.286       .  A
C25        C1742   1.521       .  S
O26          C39   1.280       .  A
O26         Cd33   2.132       .  S
O27          C45   1.300       .  A
O27         Cd36   2.185       .  S
O28          C42   1.281       .  A
O28         Cd32   2.121       .  S
O29          C40   1.278       .  A
O29         Cd32   2.123       .  S
Zn30         O41   2.108       .  S
Zn30         O43   2.145       .  S
Zn30         O35   1.981       .  S
O31          C42   1.284       .  A
O31         Cd36   2.151       .  S
Cd32         O34   2.154       .  S
Cd32         O35   2.021       .  S
Cd33         O37   2.150       .  S
Cd33         O46   2.123       .  S
Cd33         O35   2.129       .  S
O34          C44   1.295       .  A
O35         Cd36   2.050       .  S
Cd36         O38   2.154       .  S
O37          C44   1.281       .  A
C39          O43   1.297       .  A
C39        C1099   1.539       .  S
C40         C905   1.523       .  S
C42         C665   1.510       .  S
C44        C2079   1.546       .  S
C45          O46   1.275       .  A
C45        C1299   1.527       .  S
C47        C3309   1.472       .  S
C47          N48   1.361       .  A
C47          N52   1.361       .  A
N48          C49   1.361       .  A
C49        C3336   1.481       .  S
C49          N50   1.350       .  A
N50          C51   1.351       .  A
C51        C3321   1.484       .  S
C51          N52   1.356       .  A
C53        C3285   1.469       .  S
C53          N54   1.359   1_556  A
C53          N58   1.362       .  A
N54          C55   1.357       .  A
C55        C3297   1.478       .  S
C55          N56   1.348   1_564  A
N56          C57   1.352       .  A
C57        C3273   1.467       .  S
C57          N58   1.357   1_545  A
C59        C3249   1.463   1_556  S
C59          N60   1.351       .  A
C59          N64   1.364       .  A
N60          C61   1.342       .  A
C61        C3237   1.453       .  S
C61          N62   1.346       .  A
N62          C63   1.349       .  A
C63        C3261   1.478   1_655  S
C63          N64   1.364       .  A
C65        C3201   1.477       .  S
C65          N66   1.354   1_565  A
C65          N70   1.359       .  A
N66          C67   1.352   1_655  A
C67        C3225   1.470   1_455  S
C67          N68   1.349       .  A
N68          C69   1.351   1_545  A
C69        C3213   1.455       .  S
C69          N70   1.355   1_455  A
N71          C76   1.344       .  A
N71          C75   1.350       .  A
N71         H103   1.038       .  S
N72          C79   1.346       .  A
N72          C80   1.340       .  A
N73          C78   1.373       .  A
N73          C77   1.374       .  A
N73         H104   1.033       .  S
N74          C81   1.354       .  A
N74          C82   1.354       .  A
C75          C83   1.388       .  A
C75          C91   1.406       .  A
C76          C92   1.399       .  A
C76          C84   1.386       .  A
C77          C85   1.390       .  A
C77          C94   1.467       .  A
C78          C93   1.467       .  A
C78          C86   1.390       .  A
C79          C91   1.389       .  A
C79          C87   1.380       .  A
C80          C94   1.407       .  A
C80          C88   1.391       .  A
C81          C89   1.383       .  A
C81          C92   1.411       .  A
C82          C90   1.390       .  A
C82          C93   1.421       .  A
C83          C84   1.372       .  A
C83          H95   1.082       .  S
C84          H96   1.082       .  S
C85          C86   1.408       .  A
C85          H97   1.082       .  S
C86          H98   1.082       .  S
C87          C88   1.367       .  A
C87          H99   1.083       .  S
C88         H100   1.080       .  S
C89          C90   1.357       .  A
C89         H101   1.082       .  S
C90         H102   1.081       .  S
C91        C3264   1.471       .  S
C92        C3216   1.468       .  S
C93         C408   1.538       .  S
C94         C359   1.534       .  S
N105        C110   1.345       .  A
N105        C109   1.351       .  A
N105        H137   1.038       .  S
N106        C113   1.346       .  A
N106        C114   1.341       .  A
N107        C112   1.371       .  A
N107        C111   1.376       .  A
N107        H138   1.034       .  S
N108        C115   1.353       .  A
N108        C116   1.351       .  A
C109        C117   1.388       .  A
C109        C125   1.408       .  A
C110        C126   1.401       .  A
C110        C118   1.386       .  A
C111        C119   1.391       .  A
C111        C128   1.469       .  A
C112        C127   1.465       .  A
C112        C120   1.389       .  A
C113        C125   1.394       .  A
C113        C121   1.382       .  A
C114        C128   1.407       .  A
C114        C122   1.390       .  A
C115        C123   1.381       .  A
C115        C126   1.404       .  A
C116        C124   1.395       .  A
C116        C127   1.420       .  A
C117        C118   1.369       .  A
C117        H129   1.082       .  S
C118        H130   1.083       .  S
C119        C120   1.409       .  A
C119        H131   1.082       .  S
C120        H132   1.082       .  S
C121        C122   1.369       .  A
C121        H133   1.083   1_565  S
C122        H134   1.081   1_565  S
C123        C124   1.355       .  A
C123        H135   1.082       .  S
C124        H136   1.081       .  S
C125       C3300   1.475       .  S
C126       C3252   1.468       .  S
C127        C454   1.529       .  S
C128        C730   1.544       .  S
N139        C144   1.342       .  A
N139        C143   1.348       .  A
N139        H171   1.044       .  S
N140        C147   1.348       .  A
N140        C148   1.340       .  A
N141        C146   1.368       .  A
N141        C145   1.363       .  A
N141        H172   1.041       .  S
N142        C149   1.350       .  A
N142        C150   1.350       .  A
C143        C151   1.386       .  A
C143        C159   1.401       .  A
C144        C160   1.400       .  A
C144        C152   1.388       .  A
C145        C153   1.391       .  A
C145        C162   1.452       .  A
C146        C161   1.454       .  A
C146        C154   1.390       .  A
C147        C159   1.389       .  A
C147        C155   1.378       .  A
C148        C162   1.408       .  A
C148        C156   1.393       .  A
C149        C157   1.379       .  A
C149        C160   1.396       .  A
C150        C158   1.382       .  A
C150        C161   1.413       .  A
C151        C152   1.380       .  A
C151        H163   1.082       .  S
C152        H164   1.082       .  S
C153        C154   1.409       .  A
C153        H165   1.082       .  S
C154        H166   1.082       .  S
C155        C156   1.369       .  A
C155        H167   1.081       .  S
C156        H168   1.082       .  S
C157        C158   1.370       .  A
C157        H169   1.080   1_565  S
C158        H170   1.077   1_565  S
C159       C3333   1.476       .  S
C160       C3204   1.467       .  S
C161       C1256   1.540       .  S
C162        C434   1.513       .  S
N173        C178   1.339       .  A
N173        C177   1.350       .  A
N173        H205   1.043       .  S
N174        C181   1.346       .  A
N174        C182   1.332       .  A
N175        C180   1.367       .  A
N175        C179   1.369       .  A
N175        H206   1.042       .  S
N176        C183   1.350       .  A
N176        C184   1.356       .  A
C177        C185   1.387       .  A
C177        C193   1.406       .  A
C178        C194   1.395       .  A
C178        C186   1.388       .  A
C179        C187   1.390       .  A
C179        C196   1.455       .  A
C180        C195   1.456       .  A
C180        C188   1.390       .  A
C181        C193   1.397       .  A
C181        C189   1.380       .  A
C182        C196   1.395       .  A
C182        C190   1.386       .  A
C183        C191   1.387       .  A
C183        C194   1.413       .  A
C184        C192   1.387       .  A
C184        C195   1.416       .  A
C185        C186   1.374       .  A
C185        H197   1.082       .  S
C186        H198   1.083       .  S
C187        C188   1.411       .  A
C187        H199   1.082       .  S
C188        H200   1.082       .  S
C189        C190   1.381       .  A
C189        H201   1.082       .  S
C190        H202   1.080       .  S
C191        C192   1.370       .  A
C191        H203   1.082       .  S
C192        H204   1.081       .  S
C193       C3312   1.478       .  S
C194       C3240   1.460       .  S
C195        C368   1.535       .  S
C196       C1233   1.527       .  S
N207        C212   1.349       .  A
N207        C211   1.347       .  A
N207        H239   1.042       .  S
N208        C215   1.355       .  A
N208        C216   1.352       .  A
N209        C214   1.372       .  A
N209        C213   1.370       .  A
N209        H240   1.039       .  S
N210        C217   1.350       .  A
N210        C218   1.347       .  A
C211        C219   1.387       .  A
C211        C227   1.404       .  A
C212        C228   1.405       .  A
C212        C220   1.387       .  A
C213        C221   1.390       .  A
C213        C230   1.459       .  A
C214        C229   1.459       .  A
C214        C222   1.389       .  A
C215        C227   1.404       .  A
C215        C223   1.379       .  A
C216        C230   1.426       .  A
C216        C224   1.396       .  A
C217        C225   1.378       .  A
C217        C228   1.396       .  A
C218        C226   1.393       .  A
C218        C229   1.417       .  A
C219        C220   1.377       .  A
C219        H231   1.082       .  S
C220        H232   1.082       .  S
C221        C222   1.407       .  A
C221        H233   1.082       .  S
C222        H234   1.082       .  S
C223        C224   1.360       .  A
C223        H235   1.082       .  S
C224        H236   1.078       .  S
C225        C226   1.369       .  A
C225        H237   1.082   1_556  S
C226        H238   1.082   1_556  S
C227       C3324   1.478       .  S
C228       C3288   1.480       .  S
C229        C474   1.540       .  S
C230        C337   1.526       .  S
N241        C246   1.346       .  A
N241        C245   1.345       .  A
N241        H273   1.042       .  S
N242        C249   1.354       .  A
N242        C250   1.352       .  A
N243        C248   1.369       .  A
N243        C247   1.360       .  A
N243        H274   1.040       .  S
N244        C251   1.340       .  A
N244        C252   1.339       .  A
C245        C253   1.386       .  A
C245        C261   1.403       .  A
C246        C262   1.406       .  A
C246        C254   1.388       .  A
C247        C255   1.389       .  A
C247        C264   1.446       .  A
C248        C263   1.450       .  A
C248        C256   1.388       .  A
C249        C261   1.411       .  A
C249        C257   1.384       .  A
C250        C264   1.416       .  A
C250        C258   1.391       .  A
C251        C259   1.381       .  A
C251        C262   1.387       .  A
C252        C260   1.393       .  A
C252        C263   1.402       .  A
C253        C254   1.381       .  A
C253        H265   1.082       .  S
C254        H266   1.082       .  S
C255        C256   1.406       .  A
C255        H267   1.082       .  S
C256        H268   1.082       .  S
C257        C258   1.364       .  A
C257        H269   1.082       .  S
C258        H270   1.082       .  S
C259        C260   1.368       .  A
C259        H271   1.082   1_655  S
C260        H272   1.080   1_655  S
C261       C3276   1.482       .  S
C262       C3228   1.461       .  S
C263       C1943   1.520       .  S
C264        C749   1.507       .  S
O275        C291   1.283       .  A
O275       Zn281   2.118       .  S
C276        O292   1.280       .  A
C276        O289   1.283       .  A
C276       C1515   1.500       .  S
O277        C290   1.278       .  A
O277       Cd284   2.147       .  S
O278        C296   1.297       .  A
O278       Cd287   2.174       .  S
O279        C293   1.285       .  A
O279       Cd283   2.164       .  S
O280        C291   1.283       .  A
O280       Cd283   2.143       .  S
Zn281       O292   2.064       .  S
Zn281       O294   2.104       .  S
Zn281       O286   1.972       .  S
O282        C293   1.286       .  A
O282       Cd287   2.152       .  S
Cd283       O285   2.169       .  S
Cd283       O286   2.038       .  S
Cd284       O288   2.121       .  S
Cd284       O297   2.143       .  S
Cd284       O286   2.139       .  S
O285        C295   1.300       .  A
O286       Cd287   2.029       .  S
Cd287       O289   2.128       .  S
O288        C295   1.276       .  A
C290        O294   1.295       .  A
C290        C510   1.532       .  S
C291       C1064   1.522       .  S
C293       C1994   1.528       .  S
C295        C904   1.530       .  S
C296        O297   1.280       .  A
C296       C1795   1.540       .  S
O298        C314   1.285       .  A
O298       Zn304   2.111       .  S
C299        O315   1.285       .  A
C299        O312   1.285       .  A
C299       C2039   1.534       .  S
O300        C313   1.276       .  A
O300       Cd307   2.133       .  S
O301        C319   1.300       .  A
O301       Cd310   2.170       .  S
O302        C316   1.284       .  A
O302       Cd306   2.118       .  S
O303        C314   1.284       .  A
O303       Cd306   2.162       .  S
Zn304       O315   2.073       .  S
Zn304       O317   2.137       .  S
Zn304       O309   1.958       .  S
O305        C316   1.285       .  A
O305       Cd310   2.150       .  S
Cd306       O308   2.174       .  S
Cd306       O309   2.018       .  S
Cd307       O311   2.138       .  S
Cd307       O320   2.110       .  S
Cd307       O309   2.139       .  S
O308        C318   1.298       .  A
O309       Cd310   2.065       .  S
Cd310       O312   2.203       .  S
O311        C318   1.278       .  A
C313        O317   1.299       .  A
C313        C664   1.539       .  S
C314       C1333   1.529       .  S
C316       C1600   1.510       .  S
C318        C871   1.542       .  S
C319        O320   1.276       .  A
C319       C1794   1.521       .  S
O321        C337   1.277       .  A
O321       Zn327   2.065       .  S
C322        O338   1.272       .  A
C322        O335   1.289       .  A
C322        C802   1.518       .  S
O323        C336   1.281       .  A
O323       Cd330   2.152       .  S
O324        C342   1.305       .  A
O324       Cd333   2.214       .  S
O325        C339   1.289       .  A
O325       Cd329   2.168       .  S
O326        C337   1.286       .  A
O326       Cd329   2.183       .  S
Zn327       O338   2.006       .  S
Zn327       O340   2.106       .  S
Zn327       O332   1.946       .  S
O328        C339   1.292       .  A
O328       Cd333   2.185       .  S
Cd329       O331   2.187       .  S
Cd329       O332   2.049       .  S
Cd330       O334   2.120       .  S
Cd330       O343   2.149       .  S
Cd330       O332   2.131       .  S
O331        C341   1.302       .  A
O332       Cd333   2.060       .  S
Cd333       O335   2.200       .  S
O334        C341   1.276       .  A
C336        O340   1.289       .  A
C336       C1132   1.547       .  S
C339        C630   1.533       .  S
C341       C1406   1.526       .  S
C342        O343   1.281       .  A
C342       C1561   1.552       .  S
O344        C360   1.283       .  A
O344       Zn350   2.094       .  S
C345        O361   1.285       .  A
C345        O358   1.287       .  A
C345       C2148   1.535       .  S
O346        C359   1.274       .  A
O346       Cd353   2.117       .  S
O347        C365   1.303       .  A
O347       Cd356   2.199       .  S
O348        C362   1.283       .  A
O348       Cd352   2.150   1_554  S
O349        C360   1.283       .  A
O349       Cd352   2.136       .  S
Zn350       O361   2.095   1_556  S
Zn350       O363   2.165       .  S
Zn350       O355   1.968   1_556  S
O351        C362   1.292       .  A
O351       Cd356   2.172       .  S
Cd352       O354   2.169       .  S
Cd352       O355   2.045   1_556  S
Cd353       O357   2.098       .  S
Cd353       O366   2.092       .  S
Cd353       O355   2.121   1_556  S
O354        C364   1.297       .  A
O355       Cd356   2.049       .  S
Cd356       O358   2.190       .  S
O357        C364   1.274       .  A
C359        O363   1.301       .  A
C360       C1703   1.512       .  S
C362       C1065   1.529       .  S
C364        C803   1.514       .  S
C365        O366   1.272   1_554  A
C365        C585   1.521       .  S
O367        C383   1.282       .  A
O367       Zn373   2.082   1_455  S
C368        O384   1.286       .  A
C368        O381   1.286       .  A
O369        C382   1.280   1_554  A
O369       Cd376   2.151       .  S
O370        C388   1.304       .  A
O370       Cd379   2.202       .  S
O371        C385   1.281       .  A
O371       Cd375   2.135       .  S
O372        C383   1.279       .  A
O372       Cd375   2.133   1_456  S
Zn373       O384   2.130       .  S
Zn373       O386   2.122   1_655  S
Zn373       O378   1.972       .  S
O374        C385   1.287       .  A
O374       Cd379   2.147       .  S
Cd375       O377   2.159   1_655  S
Cd375       O378   2.040   1_554  S
Cd376       O380   2.157       .  S
Cd376       O389   2.155   1_455  S
Cd376       O378   2.150   1_454  S
O377        C387   1.297       .  A
O378       Cd379   2.037   1_556  S
Cd379       O381   2.169   1_554  S
O380        C387   1.281       .  A
C382        O386   1.298       .  A
C382       C1702   1.535       .  S
C383        C973   1.508       .  S
C385       C1863   1.515       .  S
C387       C1991   1.544       .  S
C388        O389   1.282       .  A
C388       C1166   1.552       .  S
O390        C406   1.281       .  A
O390       Zn396   2.083       .  S
C391        O407   1.284       .  A
C391        O404   1.285       .  A
C391        C631   1.532       .  S
O392        C405   1.278       .  A
O392       Cd399   2.156       .  S
O393        C411   1.305       .  A
O393       Cd402   2.192       .  S
O394        C408   1.290       .  A
O394       Cd398   2.184   1_565  S
O395        C406   1.284       .  A
O395       Cd398   2.134       .  S
Zn396       O407   2.087   1_545  S
Zn396       O409   2.140       .  S
Zn396       O401   1.968       .  S
O397        C408   1.287       .  A
O397       Cd402   2.165       .  S
Cd398       O400   2.203       .  S
Cd398       O401   2.040       .  S
Cd399       O403   2.147       .  S
Cd399       O412   2.121       .  S
Cd399       O401   2.134       .  S
O400        C410   1.301       .  A
O401       Cd402   2.050   1_545  S
Cd402       O404   2.178       .  S
O403        C410   1.282       .  A
C405        O409   1.298       .  A
C405       C1332   1.551       .  S
C406        C938   1.511       .  S
C410       C2113   1.549       .  S
C411        O412   1.279   1_565  A
C411       C1668   1.528       .  S
O413        C429   1.270       .  A
O413       Zn419   1.996       .  S
C414        O430   1.281       .  A
C414        O427   1.284       .  A
C414       C1407   1.529       .  S
O415        C428   1.276       .  A
O415       Cd422   2.152       .  S
O416        C434   1.302       .  A
O416       Cd425   2.184       .  S
O417        C431   1.291       .  A
O417       Cd421   2.188       .  S
O418        C429   1.285       .  A
O418       Cd421   2.197       .  S
Zn419       O430   2.076       .  S
Zn419       O432   2.113       .  S
Zn419       O424   1.928       .  S
O420        C431   1.288       .  A
O420       Cd425   2.151       .  S
Cd421       O423   2.180       .  S
Cd421       O424   2.059       .  S
Cd422       O426   2.106       .  S
Cd422       O435   2.089       .  S
Cd422       O424   2.129       .  S
O423        C433   1.302       .  A
O424       Cd425   2.050       .  S
Cd425       O427   2.185       .  S
O426        C433   1.275       .  A
C428        O432   1.292       .  A
C428        C551   1.546       .  S
C429       C1012   1.526       .  S
C431       C1635   1.532       .  S
C433       C1897   1.523       .  S
C434        O435   1.274       .  A
O436        C452   1.286       .  A
O436       Zn442   2.121       .  S
C437        O453   1.287       .  A
C437        O450   1.285       .  A
C437       C1896   1.529       .  S
O438        C451   1.274       .  A
O438       Cd445   2.107       .  S
O439        C457   1.305       .  A
O439       Cd448   2.208       .  S
O440        C454   1.288       .  A
O440       Cd444   2.159   1_655  S
O441        C452   1.285       .  A
O441       Cd444   2.164       .  S
Zn442       O453   2.105   1_455  S
Zn442       O455   2.147       .  S
Zn442       O447   1.981       .  S
O443        C454   1.290       .  A
O443       Cd448   2.175       .  S
Cd444       O446   2.196       .  S
Cd444       O447   2.049       .  S
Cd445       O449   2.108       .  S
Cd445       O458   2.131   1_455  S
Cd445       O447   2.132       .  S
O446        C456   1.303       .  A
O447       Cd448   2.053   1_455  S
Cd448       O450   2.169       .  S
O449        C456   1.275       .  A
C451        O455   1.299       .  A
C451       C1514   1.523       .  S
C452        C698   1.530       .  S
C456       C2147   1.526       .  S
C457        O458   1.277       .  A
C457       C1167   1.542       .  S
O459        C475   1.274       .  A
O459       Zn465   2.034   1_545  S
C460        O476   1.279       .  A
C460        O473   1.284       .  A
C460       C1201   1.516       .  S
O461        C474   1.282       .  A
O461       Cd468   2.165       .  S
O462        C480   1.302       .  A
O462       Cd471   2.218       .  S
O463        C477   1.290       .  A
O463       Cd467   2.180   1_554  S
O464        C475   1.288       .  A
O464       Cd467   2.214       .  S
Zn465       O476   2.075   1_556  S
Zn465       O478   2.104       .  S
Zn465       O470   1.949   1_556  S
O466        C477   1.286       .  A
O466       Cd471   2.142   1_545  S
Cd467       O469   2.170       .  S
Cd467       O470   2.067   1_546  S
Cd468       O472   2.134       .  S
Cd468       O481   2.150   1_556  S
Cd468       O470   2.135   1_556  S
O469        C479   1.300       .  A
O470       Cd471   2.048       .  S
Cd471       O473   2.154       .  S
O472        C479   1.280   1_565  A
C474        O478   1.293       .  A
C475       C1474   1.539       .  S
C477       C2080   1.526       .  S
C479        C939   1.527       .  S
C480        O481   1.282       .  A
C480        C584   1.557       .  S
C482       C3192   1.476       .  S
C482        N483   1.359       .  A
C482        N487   1.350       .  A
N483        C484   1.360       .  A
C484       C3177   1.462       .  S
C484        N485   1.361       .  A
N485        C486   1.355       .  A
C486       C3168   1.477       .  S
C486        N487   1.349       .  A
N488        C493   1.351       .  A
N488        C492   1.345       .  A
N488        H520   1.042       .  S
N489        C496   1.353       .  A
N489        C497   1.355       .  A
N490        C495   1.373       .  A
N490        C494   1.369       .  A
N490        H521   1.039       .  S
N491        C498   1.347       .  A
N491        C499   1.339       .  A
C492        C500   1.387       .  A
C492        C508   1.401       .  A
C493        C509   1.406       .  A
C493        C501   1.387       .  A
C494        C502   1.389       .  A
C494        C511   1.458       .  A
C495        C510   1.459       .  A
C495        C503   1.389       .  A
C496        C508   1.410       .  A
C496        C504   1.383       .  A
C497        C511   1.421       .  A
C497        C505   1.391       .  A
C498        C506   1.378       .  A
C498        C509   1.393       .  A
C499        C507   1.396       .  A
C499        C510   1.409       .  A
C500        C501   1.371       .  A
C500        H512   1.082       .  S
C501        H513   1.082       .  S
C502        C503   1.407       .  A
C502        H514   1.082       .  S
C503        H515   1.082       .  S
C504        C505   1.369       .  A
C504        H516   1.083       .  S
C505        H517   1.082       .  S
C506        C507   1.370       .  A
C506        H518   1.081       .  S
C507        H519   1.083       .  S
C508       C3153   1.473       .  S
C509       C3180   1.474       .  S
C522       C3117   1.483       .  S
C522        N523   1.368       .  A
C522        N527   1.359       .  A
N523        C524   1.361       .  A
C524       C3141   1.472   1_565  S
C524        N525   1.348       .  A
N525        C526   1.344       .  A
C526       C3129   1.472       .  S
C526        N527   1.351       .  A
N528        C533   1.353       .  A
N528        C532   1.347       .  A
N528        H560   1.037       .  S
N529        C536   1.351       .  A
N529        C537   1.351       .  A
N530        C535   1.371       .  A
N530        C534   1.366       .  A
N530        H561   1.034       .  S
N531        C538   1.344       .  A
N531        C539   1.338       .  A
C532        C540   1.387       .  A
C532        C548   1.407       .  A
C533        C549   1.414       .  A
C533        C541   1.388       .  A
C534        C542   1.391       .  A
C534        C551   1.460       .  A
C535        C550   1.460       .  A
C535        C543   1.390       .  A
C536        C548   1.408       .  A
C536        C544   1.382       .  A
C537        C551   1.423       .  A
C537        C545   1.391       .  A
C538        C546   1.383       .  A
C538        C549   1.393       .  A
C539        C547   1.387       .  A
C539        C550   1.398       .  A
C540        C541   1.368       .  A
C540        H552   1.082       .  S
C541        H553   1.081       .  S
C542        C543   1.410       .  A
C542        H554   1.082       .  S
C543        H555   1.082       .  S
C544        C545   1.365       .  A
C544        H556   1.082       .  S
C545        H557   1.082       .  S
C546        C547   1.372       .  A
C546        H558   1.083       .  S
C547        H559   1.081       .  S
C548       C3105   1.472       .  S
C549       C3120   1.476       .  S
C550        C731   1.532       .  S
N562        C567   1.341       .  A
N562        C566   1.352       .  A
N562        H594   1.043       .  S
N563        C570   1.343       .  A
N563        C571   1.332       .  A
N564        C569   1.371       .  A
N564        C568   1.369       .  A
N564        H595   1.042       .  S
N565        C572   1.350       .  A
N565        C573   1.359       .  A
C566        C574   1.388       .  A
C566        C582   1.411       .  A
C567        C583   1.398       .  A
C567        C575   1.386       .  A
C568        C576   1.389       .  A
C568        C585   1.455       .  A
C569        C584   1.461       .  A
C569        C577   1.390       .  A
C570        C582   1.392       .  A
C570        C578   1.381       .  A
C571        C585   1.398       .  A
C571        C579   1.396       .  A
C572        C580   1.380       .  A
C572        C583   1.407       .  A
C573        C581   1.390       .  A
C573        C584   1.429       .  A
C574        C575   1.377       .  A
C574        H586   1.083       .  S
C575        H587   1.082       .  S
C576        C577   1.409       .  A
C576        H588   1.082   1_554  S
C577        H589   1.082       .  S
C578        C579   1.374       .  A
C578        H590   1.083       .  S
C579        H591   1.083       .  S
C580        C581   1.369       .  A
C580        H592   1.083       .  S
C581        H593   1.073       .  S
C582       C3189   1.478       .  S
C583       C3132   1.463       .  S
C596       C3093   1.475       .  S
C596        N597   1.359   1_565  A
C596        N601   1.358       .  A
N597        C598   1.356       .  A
C598       C3081   1.472       .  S
C598        N599   1.350       .  A
N599        C600   1.349       .  A
C600       C3069   1.466       .  S
C600        N601   1.357   1_545  A
C602       C3057   1.469       .  S
C602        N603   1.355       .  A
C602        N607   1.358       .  A
N603        C604   1.354       .  A
C604       C3156   1.466       .  S
C604        N605   1.352       .  A
N605        C606   1.352       .  A
C606       C3108   1.467       .  S
C606        N607   1.352       .  A
N608        C613   1.337       .  A
N608        C612   1.346       .  A
N608        H640   1.043       .  S
N609        C616   1.337       .  A
N609        C617   1.331       .  A
N610        C615   1.364       .  A
N610        C614   1.373       .  A
N610        H641   1.042       .  S
N611        C618   1.356       .  A
N611        C619   1.355       .  A
C612        C620   1.386       .  A
C612        C628   1.401       .  A
C613        C629   1.393       .  A
C613        C621   1.388       .  A
C614        C622   1.390       .  A
C614        C631   1.458       .  A
C615        C630   1.455       .  A
C615        C623   1.391       .  A
C616        C628   1.385       .  A
C616        C624   1.375       .  A
C617        C631   1.390       .  A
C617        C625   1.390       .  A
C618        C626   1.376       .  A
C618        C629   1.405       .  A
C619        C627   1.385       .  A
C619        C630   1.417       .  A
C620        C621   1.378       .  A
C620        H632   1.082       .  S
C621        H633   1.082       .  S
C622        C623   1.412       .  A
C622        H634   1.082       .  S
C623        H635   1.082       .  S
C624        C625   1.379       .  A
C624        H636   1.080   1_565  S
C625        H637   1.082       .  S
C626        C627   1.364       .  A
C626        H638   1.083       .  S
C627        H639   1.080       .  S
C628       C3072   1.464       .  S
C629       C3060   1.466       .  S
N642        C647   1.344       .  A
N642        C646   1.344       .  A
N642        H674   1.041       .  S
N643        C650   1.357       .  A
N643        C651   1.351       .  A
N644        C649   1.372       .  A
N644        C648   1.363       .  A
N644        H675   1.039       .  S
N645        C652   1.344       .  A
N645        C653   1.345       .  A
C646        C654   1.388       .  A
C646        C662   1.403       .  A
C647        C663   1.399       .  A
C647        C655   1.384       .  A
C648        C656   1.390       .  A
C648        C665   1.453       .  A
C649        C664   1.457       .  A
C649        C657   1.389       .  A
C650        C662   1.407       .  A
C650        C658   1.380       .  A
C651        C665   1.421       .  A
C651        C659   1.395       .  A
C652        C660   1.374       .  A
C652        C663   1.395       .  A
C653        C661   1.388       .  A
C653        C664   1.404       .  A
C654        C655   1.381       .  A
C654        H666   1.081       .  S
C655        H667   1.082       .  S
C656        C657   1.407       .  A
C656        H668   1.081       .  S
C657        H669   1.082       .  S
C658        C659   1.358       .  A
C658        H670   1.081       .  S
C659        H671   1.080       .  S
C660        C661   1.363       .  A
C660        H672   1.068       .  S
C661        H673   1.083       .  S
C662       C3144   1.478       .  S
C663       C3084   1.467       .  S
N676        C681   1.344       .  A
N676        C680   1.349       .  A
N676        H708   1.041       .  S
N677        C684   1.346       .  A
N677        C685   1.342       .  A
N678        C683   1.368       .  A
N678        C682   1.375       .  A
N678        H709   1.039       .  S
N679        C686   1.358       .  A
N679        C687   1.357       .  A
C680        C688   1.386       .  A
C680        C696   1.404       .  A
C681        C697   1.400       .  A
C681        C689   1.387       .  A
C682        C690   1.390       .  A
C682        C699   1.462       .  A
C683        C698   1.459       .  A
C683        C691   1.390       .  A
C684        C696   1.392       .  A
C684        C692   1.380       .  A
C685        C699   1.406       .  A
C685        C693   1.391       .  A
C686        C694   1.383       .  A
C686        C697   1.417       .  A
C687        C695   1.390       .  A
C687        C698   1.424       .  A
C688        C689   1.378       .  A
C688        H700   1.082       .  S
C689        H701   1.082       .  S
C690        C691   1.407       .  A
C690        H702   1.082   1_455  S
C691        H703   1.082   1_455  S
C692        C693   1.371       .  A
C692        H704   1.082       .  S
C693        H705   1.083       .  S
C694        C695   1.357       .  A
C694        H706   1.081       .  S
C695        H707   1.081       .  S
C696       C3096   1.473       .  S
C697       C3165   1.475       .  S
C699       C1250   1.542       .  S
O710        C726   1.284       .  A
O710       Zn716   2.093       .  S
C711        O727   1.283       .  A
C711        O724   1.286       .  A
C711       C1298   1.524       .  S
O712        C725   1.276       .  A
O712       Cd719   2.120   1_545  S
O713        C731   1.304       .  A
O713       Cd722   2.201   1_565  S
O714        C728   1.287       .  A
O714       Cd718   2.141   1_565  S
O715        C726   1.285       .  A
O715       Cd718   2.178       .  S
Zn716       O727   2.115       .  S
Zn716       O729   2.157       .  S
Zn716       O721   1.988       .  S
O717        C728   1.285       .  A
O717       Cd722   2.164   1_565  S
Cd718       O720   2.205   1_545  S
Cd718       O721   2.044       .  S
Cd719       O723   2.131       .  S
Cd719       O732   2.119       .  S
Cd719       O721   2.138   1_565  S
O720        C730   1.305       .  A
O721       Cd722   2.043       .  S
Cd722       O724   2.153       .  S
O723        C730   1.277       .  A
C725        O729   1.301       .  A
C725       C1931   1.534       .  S
C726       C2179   1.532       .  S
C728       C1200   1.523       .  S
C731        O732   1.276       .  A
O733        C749   1.280       .  A
O733       Zn739   2.068       .  S
C734        O750   1.280       .  A
C734        O747   1.283       .  A
C734       C1862   1.514       .  S
O735        C748   1.279       .  A
O735       Cd742   2.166       .  S
O736        C754   1.298       .  A
O736       Cd745   2.159   1_554  S
O737        C751   1.282       .  A
O737       Cd741   2.122       .  S
O738        C749   1.281       .  A
O738       Cd741   2.139       .  S
Zn739       O750   2.055   1_556  S
Zn739       O752   2.110   1_556  S
Zn739       O744   1.961       .  S
O740        C751   1.285       .  A
O740       Cd745   2.152       .  S
Cd741       O743   2.150       .  S
Cd741       O744   2.024       .  S
Cd742       O746   2.150   1_554  S
Cd742       O755   2.130       .  S
Cd742       O744   2.132   1_554  S
O743        C753   1.294       .  A
O744       Cd745   2.043       .  S
Cd745       O747   2.157   1_556  S
O746        C753   1.283       .  A
C748        O752   1.292       .  A
C748       C2180   1.549       .  S
C751        C837   1.511       .  S
C753       C1475   1.534       .  S
C754        O755   1.280       .  A
C754       C1098   1.521       .  S
C756       C3024   1.472       .  S
C756        N757   1.360       .  A
C756        N761   1.360       .  A
N757        C758   1.353       .  A
C758       C3033   1.454       .  S
C758        N759   1.346       .  A
N759        C760   1.343       .  A
C760       C3045   1.459       .  S
C760        N761   1.355       .  A
C762       C2985   1.470       .  S
C762        N763   1.358       .  A
C762        N767   1.359       .  A
N763        C764   1.360       .  A
C764       C3009   1.475   1_556  S
C764        N765   1.351   1_556  A
N765        C766   1.352   1_554  A
C766       C2997   1.454   1_556  S
C766        N767   1.350       .  A
C768       C2973   1.455       .  S
C768        N769   1.349       .  A
C768        N773   1.353       .  A
N769        C770   1.355       .  A
C770       C2961   1.464       .  S
C770        N771   1.357       .  A
N771        C772   1.359       .  A
C772       C2949   1.468       .  S
C772        N773   1.352       .  A
C774       C2925   1.459       .  S
C774        N775   1.353   1_556  A
C774        N779   1.354       .  A
N775        C776   1.351       .  A
C776       C2937   1.468       .  S
C776        N777   1.354       .  A
N777        C778   1.355       .  A
C778       C2913   1.477       .  S
C778        N779   1.361   1_554  A
N780        C785   1.345       .  A
N780        C784   1.352       .  A
N780        H812   1.043       .  S
N781        C788   1.345       .  A
N781        C789   1.338       .  A
N782        C787   1.362       .  A
N782        C786   1.366       .  A
N782        H813   1.038       .  S
N783        C790   1.357       .  A
N783        C791   1.358       .  A
C784        C792   1.385       .  A
C784        C800   1.407       .  A
C785        C801   1.403       .  A
C785        C793   1.389       .  A
C786        C794   1.389       .  A
C786        C803   1.448       .  A
C787        C802   1.445       .  A
C787        C795   1.389       .  A
C788        C800   1.388       .  A
C788        C796   1.382   1_556  A
C789        C803   1.405       .  A
C789        C797   1.389       .  A
C790        C798   1.382       .  A
C790        C801   1.410       .  A
C791        C799   1.394       .  A
C791        C802   1.431       .  A
C792        C793   1.374       .  A
C792        H804   1.083       .  S
C793        H805   1.082       .  S
C794        C795   1.403       .  A
C794        H806   1.082       .  S
C795        H807   1.082       .  S
C796        C797   1.373   1_554  A
C796        H808   1.082       .  S
C797        H809   1.081   1_556  S
C798        C799   1.363       .  A
C798        H810   1.083       .  S
C799        H811   1.082       .  S
C800       C2916   1.481       .  S
C801       C2964   1.471       .  S
N814        C819   1.343       .  A
N814        C818   1.344       .  A
N814        H846   1.040       .  S
N815        C822   1.354       .  A
N815        C823   1.348       .  A
N816        C821   1.370       .  A
N816        C820   1.366       .  A
N816        H847   1.042       .  S
N817        C824   1.349       .  A
N817        C825   1.347       .  A
C818        C826   1.387       .  A
C818        C834   1.404       .  A
C819        C835   1.399       .  A
C819        C827   1.385       .  A
C820        C828   1.389       .  A
C820        C837   1.451       .  A
C821        C836   1.455       .  A
C821        C829   1.390       .  A
C822        C834   1.414       .  A
C822        C830   1.388       .  A
C823        C837   1.404       .  A
C823        C831   1.387       .  A
C824        C832   1.388       .  A
C824        C835   1.408       .  A
C825        C833   1.386       .  A
C825        C836   1.404       .  A
C826        C827   1.382       .  A
C826        H838   1.082       .  S
C827        H839   1.082       .  S
C828        C829   1.406       .  A
C828        H840   1.082       .  S
C829        H841   1.081       .  S
C830        C831   1.365       .  A
C830        H842   1.080       .  S
C831        H843   1.082       .  S
C832        C833   1.367       .  A
C832        H844   1.082       .  S
C833        H845   1.083       .  S
C834       C2988   1.482       .  S
C835       C2952   1.471       .  S
C836       C1232   1.536       .  S
N848        C853   1.341       .  A
N848        C852   1.341       .  A
N848        H880   1.043       .  S
N849        C856   1.349       .  A
N849        C857   1.347       .  A
N850        C855   1.372       .  A
N850        C854   1.369       .  A
N850        H881   1.042       .  S
N851        C858   1.344       .  A
N851        C859   1.336       .  A
C852        C860   1.387       .  A
C852        C868   1.397       .  A
C853        C869   1.401       .  A
C853        C861   1.388       .  A
C854        C862   1.391       .  A
C854        C871   1.461       .  A
C855        C870   1.462       .  A
C855        C863   1.390       .  A
C856        C868   1.400       .  A
C856        C864   1.382       .  A
C857        C871   1.412       .  A
C857        C865   1.392       .  A
C858        C866   1.378       .  A
C858        C869   1.390       .  A
C859        C867   1.395       .  A
C859        C870   1.405       .  A
C860        C861   1.380       .  A
C860        H872   1.082       .  S
C861        H873   1.082       .  S
C862        C863   1.412       .  A
C862        H874   1.082       .  S
C863        H875   1.082       .  S
C864        C865   1.369       .  A
C864        H876   1.083       .  S
C865        H877   1.083       .  S
C866        C867   1.374       .  A
C866        H878   1.082       .  S
C867        H879   1.080       .  S
C868       C3036   1.467       .  S
C869       C2976   1.462       .  S
N882        C887   1.350       .  A
N882        C886   1.343       .  A
N882        H914   1.042       .  S
N883        C890   1.354       .  A
N883        C891   1.355       .  A
N884        C889   1.371       .  A
N884        C888   1.365       .  A
N884        H915   1.041       .  S
N885        C892   1.342       .  A
N885        C893   1.337       .  A
C886        C894   1.386       .  A
C886        C902   1.401       .  A
C887        C903   1.408       .  A
C887        C895   1.387       .  A
C888        C896   1.389       .  A
C888        C905   1.452       .  A
C889        C904   1.457       .  A
C889        C897   1.390       .  A
C890        C902   1.413       .  A
C890        C898   1.385       .  A
C891        C905   1.416       .  A
C891        C899   1.389       .  A
C892        C900   1.383       .  A
C892        C903   1.393       .  A
C893        C901   1.391       .  A
C893        C904   1.400       .  A
C894        C895   1.380       .  A
C894        H906   1.082       .  S
C895        H907   1.082       .  S
C896        C897   1.407       .  A
C896        H908   1.082       .  S
C897        H909   1.082       .  S
C898        C899   1.365       .  A
C898        H910   1.082       .  S
C899        H911   1.082       .  S
C900        C901   1.373       .  A
C900        H912   1.083       .  S
C901        H913   1.083       .  S
C902       C3000   1.477       .  S
C903       C2940   1.474       .  S
N916        C921   1.347       .  A
N916        C920   1.351       .  A
N916        H948   1.042       .  S
N917        C924   1.346       .  A
N917        C925   1.341       .  A
N918        C923   1.363       .  A
N918        C922   1.369       .  A
N918        H949   1.039       .  S
N919        C926   1.353       .  A
N919        C927   1.352       .  A
C920        C928   1.388       .  A
C920        C936   1.410       .  A
C921        C937   1.403       .  A
C921        C929   1.386       .  A
C922        C930   1.389       .  A
C922        C939   1.451       .  A
C923        C938   1.448       .  A
C923        C931   1.389       .  A
C924        C936   1.393       .  A
C924        C932   1.377   1_556  A
C925        C939   1.406       .  A
C925        C933   1.391       .  A
C926        C934   1.382       .  A
C926        C937   1.407       .  A
C927        C935   1.392       .  A
C927        C938   1.419       .  A
C928        C929   1.371       .  A
C928        H940   1.081       .  S
C929        H941   1.082       .  S
C930        C931   1.405       .  A
C930        H942   1.082   1_545  S
C931        H943   1.082   1_545  S
C932        C933   1.367   1_554  A
C932        H944   1.078       .  S
C933        H945   1.082   1_556  S
C934        C935   1.363       .  A
C934        H946   1.083       .  S
C935        H947   1.081       .  S
C936       C3012   1.479       .  S
C937       C3021   1.473       .  S
N950        C955   1.340       .  A
N950        C954   1.346       .  A
N950        H982   1.039       .  S
N951        C958   1.352       .  A
N951        C959   1.345       .  A
N952        C957   1.369       .  A
N952        C956   1.366       .  A
N952        H983   1.040       .  S
N953        C960   1.348       .  A
N953        C961   1.347       .  A
C954        C962   1.387       .  A
C954        C970   1.405       .  A
C955        C971   1.396       .  A
C955        C963   1.385       .  A
C956        C964   1.389   1_455  A
C956        C973   1.450       .  A
C957        C972   1.451       .  A
C957        C965   1.388   1_455  A
C958        C970   1.408       .  A
C958        C966   1.385       .  A
C959        C973   1.405       .  A
C959        C967   1.390       .  A
C960        C968   1.387       .  A
C960        C971   1.404       .  A
C961        C969   1.389       .  A
C961        C972   1.403       .  A
C962        C963   1.380       .  A
C962        H974   1.082       .  S
C963        H975   1.082       .  S
C964        C965   1.405       .  A
C964        H976   1.082       .  S
C965        H977   1.082       .  S
C966        C967   1.365       .  A
C966        H978   1.082       .  S
C967        H979   1.083       .  S
C968        C969   1.363       .  A
C968        H980   1.082       .  S
C969        H981   1.082       .  S
C970       C2928   1.482       .  S
C971       C3048   1.460       .  S
C972       C1958   1.514       .  S
C984       C2901   1.461       .  S
C984        N985   1.361       .  A
C984        N989   1.347       .  A
N985        C986   1.360       .  A
C986       C2877   1.484       .  S
C986        N987   1.359       .  A
N987        C988   1.353       .  A
C988       C2892   1.460       .  S
C988        N989   1.351       .  A
N990        C995   1.348       .  A
N990        C994   1.342       .  A
N990       H1022   1.044       .  S
N991        C998   1.350       .  A
N991        C999   1.354       .  A
N992        C997   1.366       .  A
N992        C996   1.364       .  A
N992       H1023   1.042       .  S
N993       C1000   1.350       .  A
N993       C1001   1.343       .  A
C994       C1002   1.387       .  A
C994       C1010   1.399       .  A
C995       C1011   1.404       .  A
C995       C1003   1.387       .  A
C996       C1004   1.390       .  A
C996       C1013   1.450       .  A
C997       C1012   1.446       .  A
C997       C1005   1.389       .  A
C998       C1010   1.400       .  A
C998       C1006   1.379       .  A
C999       C1013   1.425       .  A
C999       C1007   1.393       .  A
C1000      C1008   1.373       .  A
C1000      C1011   1.394       .  A
C1001      C1009   1.398       .  A
C1001      C1012   1.418       .  A
C1002      C1003   1.380       .  A
C1002      H1014   1.082       .  S
C1003      H1015   1.082       .  S
C1004      C1005   1.406       .  A
C1004      H1016   1.082       .  S
C1005      H1017   1.082       .  S
C1006      C1007   1.371       .  A
C1006      H1018   1.083       .  S
C1007      H1019   1.080       .  S
C1008      C1009   1.370       .  A
C1008      H1020   1.080       .  S
C1009      H1021   1.081       .  S
C1010      C2865   1.466       .  S
C1011      C2880   1.482       .  S
C1024      C2856   1.497       .  S
C1024      N1025   1.370       .  A
C1024      N1029   1.365       .  A
N1025      C1026   1.362   1_556  A
C1026      C2844   1.476       .  S
C1026      N1027   1.351       .  A
N1027      C1028   1.350       .  A
C1028      C2829   1.490       .  S
C1028      N1029   1.360   1_554  A
C1030      C2793   1.479       .  S
C1030      N1031   1.354       .  A
C1030      N1035   1.360       .  A
N1031      C1032   1.348       .  A
C1032      C2820   1.463   1_554  S
C1032      N1033   1.349       .  A
N1033      C1034   1.351       .  A
C1034      C2805   1.464       .  S
C1034      N1035   1.361       .  A
C1036      C2784   1.481       .  S
C1036      N1037   1.360       .  A
C1036      N1041   1.363       .  A
N1037      C1038   1.356       .  A
C1038      C2868   1.466       .  S
C1038      N1039   1.347       .  A
N1039      C1040   1.348       .  A
C1040      C2769   1.460       .  S
C1040      N1041   1.353       .  A
N1042      C1047   1.349       .  A
N1042      C1046   1.342       .  A
N1042      H1074   1.039       .  S
N1043      C1050   1.357       .  A
N1043      C1051   1.354       .  A
N1044      C1049   1.374       .  A
N1044      C1048   1.370       .  A
N1044      H1075   1.038       .  S
N1045      C1052   1.347       .  A
N1045      C1053   1.338       .  A
C1046      C1054   1.386       .  A
C1046      C1062   1.399       .  A
C1047      C1063   1.406       .  A
C1047      C1055   1.387       .  A
C1048      C1056   1.390       .  A
C1048      C1065   1.461       .  A
C1049      C1064   1.461       .  A
C1049      C1057   1.389       .  A
C1050      C1062   1.411       .  A
C1050      C1058   1.382       .  A
C1051      C1065   1.421       .  A
C1051      C1059   1.391       .  A
C1052      C1060   1.381       .  A
C1052      C1063   1.398       .  A
C1053      C1061   1.393       .  A
C1053      C1064   1.402       .  A
C1054      C1055   1.377       .  A
C1054      H1066   1.082       .  S
C1055      H1067   1.082       .  S
C1056      C1057   1.407       .  A
C1056      H1068   1.082       .  S
C1057      H1069   1.082       .  S
C1058      C1059   1.364       .  A
C1058      H1070   1.082       .  S
C1059      H1071   1.081       .  S
C1060      C1061   1.373       .  A
C1060      H1072   1.082       .  S
C1061      H1073   1.081       .  S
C1062      C2796   1.473       .  S
C1063      C2772   1.474       .  S
N1076      C1081   1.351       .  A
N1076      C1080   1.346       .  A
N1076      H1108   1.043       .  S
N1077      C1084   1.353       .  A
N1077      C1085   1.355       .  A
N1078      C1083   1.368       .  A
N1078      C1082   1.367       .  A
N1078      H1109   1.041       .  S
N1079      C1086   1.348       .  A
N1079      C1087   1.340       .  A
C1080      C1088   1.386       .  A
C1080      C1096   1.401       .  A
C1081      C1097   1.410       .  A
C1081      C1089   1.388       .  A
C1082      C1090   1.389       .  A
C1082      C1099   1.453       .  A
C1083      C1098   1.450       .  A
C1083      C1091   1.388       .  A
C1084      C1096   1.403       .  A
C1084      C1092   1.378       .  A
C1085      C1099   1.427       .  A
C1085      C1093   1.389       .  A
C1086      C1094   1.378       .  A
C1086      C1097   1.394       .  A
C1087      C1095   1.393       .  A
C1087      C1098   1.407       .  A
C1088      C1089   1.376       .  A
C1088      H1100   1.082       .  S
C1089      H1101   1.082       .  S
C1090      C1091   1.405       .  A
C1090      H1102   1.082       .  S
C1091      H1103   1.082       .  S
C1092      C1093   1.365       .  A
C1092      H1104   1.083       .  S
C1093      H1105   1.073       .  S
C1094      C1095   1.373       .  A
C1094      H1106   1.081       .  S
C1095      H1107   1.082       .  S
C1096      C2781   1.477       .  S
C1097      C2832   1.483       .  S
N1110      C1115   1.341       .  A
N1110      C1114   1.354       .  A
N1110      H1142   1.033       .  S
N1111      C1118   1.347       .  A
N1111      C1119   1.349       .  A
N1112      C1117   1.362       .  A
N1112      C1116   1.360       .  A
N1112      H1143   1.027       .  S
N1113      C1120   1.354       .  A
N1113      C1121   1.361       .  A
C1114      C1122   1.379       .  A
C1114      C1130   1.404       .  A
C1115      C1131   1.413       .  A
C1115      C1123   1.395       .  A
C1116      C1124   1.385       .  A
C1116      C1133   1.445       .  A
C1117      C1132   1.460       .  A
C1117      C1125   1.396       .  A
C1118      C1130   1.396       .  A
C1118      C1126   1.391       .  A
C1119      C1133   1.394       .  A
C1119      C1127   1.381       .  A
C1120      C1128   1.385       .  A
C1120      C1131   1.422       .  A
C1121      C1129   1.390       .  A
C1121      C1132   1.438       .  A
C1122      C1123   1.374       .  A
C1122      H1134   1.082       .  S
C1123      H1135   1.082       .  S
C1124      C1125   1.409       .  A
C1124      H1136   1.082       .  S
C1125      H1137   1.081       .  S
C1126      C1127   1.368       .  A
C1126      H1138   1.083       .  S
C1127      H1139   1.083       .  S
C1128      C1129   1.363       .  A
C1128      H1140   1.083       .  S
C1129      H1141   1.078       .  S
C1130      C2853   1.485       .  S
C1131      C2817   1.463       .  S
C1133      C1230   1.502       .  S
N1144      C1149   1.347       .  A
N1144      C1148   1.347       .  A
N1144      H1176   1.043       .  S
N1145      C1152   1.345       .  A
N1145      C1153   1.341       .  A
N1146      C1151   1.370       .  A
N1146      C1150   1.374       .  A
N1146      H1177   1.041       .  S
N1147      C1154   1.352       .  A
N1147      C1155   1.351       .  A
C1148      C1156   1.389       .  A
C1148      C1164   1.412       .  A
C1149      C1165   1.405       .  A
C1149      C1157   1.385       .  A
C1150      C1158   1.392       .  A
C1150      C1167   1.467       .  A
C1151      C1166   1.466       .  A
C1151      C1159   1.391       .  A
C1152      C1164   1.397       .  A
C1152      C1160   1.385       .  A
C1153      C1167   1.402       .  A
C1153      C1161   1.389       .  A
C1154      C1162   1.380       .  A
C1154      C1165   1.402       .  A
C1155      C1163   1.387       .  A
C1155      C1166   1.416       .  A
C1156      C1157   1.387       .  A
C1156      H1168   1.082       .  S
C1157      H1169   1.082       .  S
C1158      C1159   1.414       .  A
C1158      H1170   1.082   1_655  S
C1159      H1171   1.082       .  S
C1160      C1161   1.371       .  A
C1160      H1172   1.083       .  S
C1161      H1173   1.083       .  S
C1162      C1163   1.369       .  A
C1162      H1174   1.083       .  S
C1163      H1175   1.079       .  S
C1164      C2889   1.476       .  S
C1165      C2841   1.484       .  S
N1178      C1183   1.345       .  A
N1178      C1182   1.343       .  A
N1178      H1210   1.037       .  S
N1179      C1186   1.350       .  A
N1179      C1187   1.345       .  A
N1180      C1185   1.370       .  A
N1180      C1184   1.371       .  A
N1180      H1211   1.040       .  S
N1181      C1188   1.355       .  A
N1181      C1189   1.351       .  A
C1182      C1190   1.386       .  A
C1182      C1198   1.399       .  A
C1183      C1199   1.401       .  A
C1183      C1191   1.386       .  A
C1184      C1192   1.390       .  A
C1184      C1201   1.458       .  A
C1185      C1200   1.455       .  A
C1185      C1193   1.388   1_565  A
C1186      C1198   1.405       .  A
C1186      C1194   1.384       .  A
C1187      C1201   1.406       .  A
C1187      C1195   1.390       .  A
C1188      C1196   1.388       .  A
C1188      C1199   1.414       .  A
C1189      C1197   1.386       .  A
C1189      C1200   1.407       .  A
C1190      C1191   1.377       .  A
C1190      H1202   1.082       .  S
C1191      H1203   1.082       .  S
C1192      C1193   1.406   1_565  A
C1192      H1204   1.082   1_565  S
C1193      H1205   1.082       .  S
C1194      C1195   1.368       .  A
C1194      H1206   1.082       .  S
C1195      H1207   1.082       .  S
C1196      C1197   1.352       .  A
C1196      H1208   1.079       .  S
C1197      H1209   1.081       .  S
C1198      C2808   1.467       .  S
C1199      C2904   1.475       .  S
O1212      C1228   1.281       .  A
O1212     Zn1218   2.098       .  S
C1213      O1229   1.285       .  A
C1213      O1226   1.283       .  A
C1213      C1634   1.517       .  S
O1214      C1227   1.275       .  A
O1214     Cd1221   2.109       .  S
O1215      C1233   1.302       .  A
O1215     Cd1224   2.185       .  S
O1216      C1230   1.281       .  A
O1216     Cd1220   2.087       .  S
O1217      C1228   1.283       .  A
O1217     Cd1220   2.159       .  S
Zn1218     O1229   2.069       .  S
Zn1218     O1231   2.132       .  S
Zn1218     O1223   1.967       .  S
O1219      C1230   1.285       .  A
O1219     Cd1224   2.160       .  S
Cd1220     O1222   2.155       .  S
Cd1220     O1223   2.006       .  S
Cd1221     O1225   2.130       .  S
Cd1221     O1234   2.121       .  S
Cd1221     O1223   2.126       .  S
O1222      C1232   1.296       .  A
O1223     Cd1224   2.048       .  S
Cd1224     O1226   2.162       .  S
O1225      C1232   1.277       .  A
C1227      O1231   1.299       .  A
C1227      C1829   1.519       .  S
C1228      C1373   1.524       .  S
C1233      O1234   1.276       .  A
O1235      C1251   1.287       .  A
O1235     Zn1241   2.104   1_545  S
C1236      O1252   1.288       .  A
C1236      O1249   1.279       .  A
C1236      C1669   1.533       .  S
O1237      C1250   1.281   1_655  A
O1237     Cd1244   2.153       .  S
O1238      C1256   1.299       .  A
O1238     Cd1247   2.185       .  S
O1239      C1253   1.285       .  A
O1239     Cd1243   2.163       .  S
O1240      C1251   1.284       .  A
O1240     Cd1243   2.150   1_455  S
Zn1241     O1252   2.166       .  S
Zn1241     O1254   2.140       .  S
Zn1241     O1246   1.996   1_565  S
O1242      C1253   1.281       .  A
O1242     Cd1247   2.125   1_545  S
Cd1243     O1245   2.176       .  S
Cd1243     O1246   2.048   1_655  S
Cd1244     O1248   2.147   1_565  S
Cd1244     O1257   2.149       .  S
Cd1244     O1246   2.137   1_665  S
O1245      C1255   1.300       .  A
O1246     Cd1247   2.025   1_445  S
Cd1247     O1249   2.108   1_655  S
O1248      C1255   1.281       .  A
C1250      O1254   1.300       .  A
C1251      C2040   1.521       .  S
C1253      C1440   1.521       .  S
C1255      C1930   1.536       .  S
C1256      O1257   1.281       .  A
C1258      C2748   1.465       .  S
C1258      N1259   1.353   1_565  A
C1258      N1263   1.357       .  A
N1259      C1260   1.346       .  A
C1260      C2733   1.454       .  S
C1260      N1261   1.355   1_545  A
N1261      C1262   1.358       .  A
C1262      C2757   1.480       .  S
C1262      N1263   1.362       .  A
C1264      C2721   1.461       .  S
C1264      N1265   1.347       .  A
C1264      N1269   1.354       .  A
N1265      C1266   1.349       .  A
C1266      C2709   1.461   1_545  S
C1266      N1267   1.351       .  A
N1267      C1268   1.352       .  A
C1268      C2700   1.470       .  S
C1268      N1269   1.350       .  A
C1270      C2685   1.461       .  S
C1270      N1271   1.355       .  A
C1270      N1275   1.357       .  A
N1271      C1272   1.349       .  A
C1272      C2661   1.458       .  S
C1272      N1273   1.352       .  A
N1273      C1274   1.354       .  A
C1274      C2673   1.476       .  S
C1274      N1275   1.360       .  A
N1276      C1281   1.339       .  A
N1276      C1280   1.350       .  A
N1276      H1308   1.043       .  S
N1277      C1284   1.342       .  A
N1277      C1285   1.334       .  A
N1278      C1283   1.364       .  A
N1278      C1282   1.371       .  A
N1278      H1309   1.041       .  S
N1279      C1286   1.352       .  A
N1279      C1287   1.354       .  A
C1280      C1288   1.386       .  A
C1280      C1296   1.404       .  A
C1281      C1297   1.397       .  A
C1281      C1289   1.388       .  A
C1282      C1290   1.389       .  A
C1282      C1299   1.455       .  A
C1283      C1298   1.455       .  A
C1283      C1291   1.391       .  A
C1284      C1296   1.390       .  A
C1284      C1292   1.375       .  A
C1285      C1299   1.393       .  A
C1285      C1293   1.388       .  A
C1286      C1294   1.384       .  A
C1286      C1297   1.408       .  A
C1287      C1295   1.391       .  A
C1287      C1298   1.418       .  A
C1288      C1289   1.377       .  A
C1288      H1300   1.082       .  S
C1289      H1301   1.083       .  S
C1290      C1291   1.410       .  A
C1290      H1302   1.082       .  S
C1291      H1303   1.082       .  S
C1292      C1293   1.372       .  A
C1292      H1304   1.076       .  S
C1293      H1305   1.082       .  S
C1294      C1295   1.366       .  A
C1294      H1306   1.082       .  S
C1295      H1307   1.082       .  S
C1296      C2676   1.475       .  S
C1297      C2697   1.461       .  S
N1310      C1315   1.342       .  A
N1310      C1314   1.341       .  A
N1310      H1342   1.040       .  S
N1311      C1318   1.349       .  A
N1311      C1319   1.348       .  A
N1312      C1317   1.372       .  A
N1312      C1316   1.370       .  A
N1312      H1343   1.041       .  S
N1313      C1320   1.351       .  A
N1313      C1321   1.349       .  A
C1314      C1322   1.387       .  A
C1314      C1330   1.399       .  A
C1315      C1331   1.400       .  A
C1315      C1323   1.386       .  A
C1316      C1324   1.391       .  A
C1316      C1333   1.461       .  A
C1317      C1332   1.462       .  A
C1317      C1325   1.391       .  A
C1318      C1330   1.406       .  A
C1318      C1326   1.385       .  A
C1319      C1333   1.404       .  A
C1319      C1327   1.389       .  A
C1320      C1328   1.383       .  A
C1320      C1331   1.406       .  A
C1321      C1329   1.382       .  A
C1321      C1332   1.406       .  A
C1322      C1323   1.386       .  A
C1322      H1334   1.082       .  S
C1323      H1335   1.082       .  S
C1324      C1325   1.412       .  A
C1324      H1336   1.082       .  S
C1325      H1337   1.082       .  S
C1326      C1327   1.365       .  A
C1326      H1338   1.082       .  S
C1327      H1339   1.081       .  S
C1328      C1329   1.365       .  A
C1328      H1340   1.082       .  S
C1329      H1341   1.080       .  S
C1330      C2664   1.467       .  S
C1331      C2736   1.475       .  S
C1344      C2637   1.476       .  S
C1344      N1345   1.358       .  A
C1344      N1349   1.361       .  A
N1345      C1346   1.352       .  A
C1346      C2625   1.458       .  S
C1346      N1347   1.353       .  A
N1347      C1348   1.351       .  A
C1348      C2649   1.486       .  S
C1348      N1349   1.360       .  A
N1350      C1355   1.349       .  A
N1350      C1354   1.346       .  A
N1350      H1382   1.041       .  S
N1351      C1358   1.353       .  A
N1351      C1359   1.353       .  A
N1352      C1357   1.373       .  A
N1352      C1356   1.367       .  A
N1352      H1383   1.040       .  S
N1353      C1360   1.344       .  A
N1353      C1361   1.340       .  A
C1354      C1362   1.386       .  A
C1354      C1370   1.403       .  A
C1355      C1371   1.410       .  A
C1355      C1363   1.388       .  A
C1356      C1364   1.389       .  A
C1356      C1373   1.457       .  A
C1357      C1372   1.461       .  A
C1357      C1365   1.390       .  A
C1358      C1370   1.409       .  A
C1358      C1366   1.384       .  A
C1359      C1373   1.417       .  A
C1359      C1367   1.390       .  A
C1360      C1368   1.384       .  A
C1360      C1371   1.395       .  A
C1361      C1369   1.389       .  A
C1361      C1372   1.401       .  A
C1362      C1363   1.379       .  A
C1362      H1374   1.082       .  S
C1363      H1375   1.082       .  S
C1364      C1365   1.409       .  A
C1364      H1376   1.082       .  S
C1365      H1377   1.082       .  S
C1366      C1367   1.362       .  A
C1366      H1378   1.083       .  S
C1367      H1379   1.080       .  S
C1368      C1369   1.372       .  A
C1368      H1380   1.083       .  S
C1369      H1381   1.083       .  S
C1370      C2628   1.476       .  S
C1371      C2688   1.471       .  S
N1384      C1389   1.350       .  A
N1384      C1388   1.338       .  A
N1384      H1416   1.043       .  S
N1385      C1392   1.351       .  A
N1385      C1393   1.355       .  A
N1386      C1391   1.369       .  A
N1386      C1390   1.365       .  A
N1386      H1417   1.040       .  S
N1387      C1394   1.344       .  A
N1387      C1395   1.335       .  A
C1388      C1396   1.388       .  A
C1388      C1404   1.395       .  A
C1389      C1405   1.403       .  A
C1389      C1397   1.387       .  A
C1390      C1398   1.390       .  A
C1390      C1407   1.456       .  A
C1391      C1406   1.456       .  A
C1391      C1399   1.390       .  A
C1392      C1404   1.406       .  A
C1392      C1400   1.382       .  A
C1393      C1407   1.421       .  A
C1393      C1401   1.392       .  A
C1394      C1402   1.369       .  A
C1394      C1405   1.390       .  A
C1395      C1403   1.390       .  A
C1395      C1406   1.395       .  A
C1396      C1397   1.374       .  A
C1396      H1408   1.082       .  S
C1397      H1409   1.082       .  S
C1398      C1399   1.411       .  A
C1398      H1410   1.082       .  S
C1399      H1411   1.082       .  S
C1400      C1401   1.364       .  A
C1400      H1412   1.082       .  S
C1401      H1413   1.081       .  S
C1402      C1403   1.374       .  A
C1402      H1414   1.072       .  S
C1403      H1415   1.083       .  S
C1404      C2712   1.458       .  S
C1405      C2760   1.481       .  S
N1418      C1423   1.338       .  A
N1418      C1422   1.353       .  A
N1418      H1450   1.040       .  S
N1419      C1426   1.344       .  A
N1419      C1427   1.332       .  A
N1420      C1425   1.362       .  A
N1420      C1424   1.364       .  A
N1420      H1451   1.041       .  S
N1421      C1428   1.353       .  A
N1421      C1429   1.355       .  A
C1422      C1430   1.386       .  A
C1422      C1438   1.408       .  A
C1423      C1439   1.400       .  A
C1423      C1431   1.389       .  A
C1424      C1432   1.389   1_655  A
C1424      C1441   1.443       .  A
C1425      C1440   1.442       .  A
C1425      C1433   1.388   1_655  A
C1426      C1438   1.390       .  A
C1426      C1434   1.380       .  A
C1427      C1441   1.395       .  A
C1427      C1435   1.387       .  A
C1428      C1436   1.382       .  A
C1428      C1439   1.406       .  A
C1429      C1437   1.382       .  A
C1429      C1440   1.416       .  A
C1430      C1431   1.375       .  A
C1430      H1442   1.082       .  S
C1431      H1443   1.082       .  S
C1432      C1433   1.404       .  A
C1432      H1444   1.082       .  S
C1433      H1445   1.082       .  S
C1434      C1435   1.375       .  A
C1434      H1446   1.083       .  S
C1435      H1447   1.076       .  S
C1436      C1437   1.356       .  A
C1436      H1448   1.082       .  S
C1437      H1449   1.076       .  S
C1438      C2652   1.476       .  S
C1439      C2724   1.456       .  S
C1441      C1963   1.511       .  S
N1452      C1457   1.346       .  A
N1452      C1456   1.345       .  A
N1452      H1484   1.044       .  S
N1453      C1460   1.352       .  A
N1453      C1461   1.351       .  A
N1454      C1459   1.371       .  A
N1454      C1458   1.365       .  A
N1454      H1485   1.041       .  S
N1455      C1462   1.348       .  A
N1455      C1463   1.345       .  A
C1456      C1464   1.387       .  A
C1456      C1472   1.403       .  A
C1457      C1473   1.406       .  A
C1457      C1465   1.388       .  A
C1458      C1466   1.390       .  A
C1458      C1475   1.454       .  A
C1459      C1474   1.456       .  A
C1459      C1467   1.389       .  A
C1460      C1472   1.401       .  A
C1460      C1468   1.380       .  A
C1461      C1475   1.424       .  A
C1461      C1469   1.394       .  A
C1462      C1470   1.378       .  A
C1462      C1473   1.395       .  A
C1463      C1471   1.396       .  A
C1463      C1474   1.418       .  A
C1464      C1465   1.386       .  A
C1464      H1476   1.082       .  S
C1465      H1477   1.082       .  S
C1466      C1467   1.408       .  A
C1466      H1478   1.082       .  S
C1467      H1479   1.082       .  S
C1468      C1469   1.369       .  A
C1468      H1480   1.082       .  S
C1469      H1481   1.082       .  S
C1470      C1471   1.369       .  A
C1470      H1482   1.083   1_545  S
C1471      H1483   1.079   1_545  S
C1472      C2640   1.475       .  S
C1473      C2745   1.478       .  S
C1486      C2601   1.457       .  S
C1486      N1487   1.353   1_655  A
C1486      N1491   1.348       .  A
N1487      C1488   1.360       .  A
C1488      C2592   1.464       .  S
C1488      N1489   1.353       .  A
N1489      C1490   1.353       .  A
C1490      C2613   1.464       .  S
C1490      N1491   1.348   1_455  A
N1492      C1497   1.348       .  A
N1492      C1496   1.345       .  A
N1492      H1524   1.042       .  S
N1493      C1500   1.354       .  A
N1493      C1501   1.352       .  A
N1494      C1499   1.368       .  A
N1494      C1498   1.358       .  A
N1494      H1525   1.038       .  S
N1495      C1502   1.341       .  A
N1495      C1503   1.337       .  A
C1496      C1504   1.384       .  A
C1496      C1512   1.399       .  A
C1497      C1513   1.408       .  A
C1497      C1505   1.389       .  A
C1498      C1506   1.388       .  A
C1498      C1515   1.442       .  A
C1499      C1514   1.449       .  A
C1499      C1507   1.389       .  A
C1500      C1512   1.408       .  A
C1500      C1508   1.383       .  A
C1501      C1515   1.417       .  A
C1501      C1509   1.392       .  A
C1502      C1510   1.383       .  A
C1502      C1513   1.392       .  A
C1503      C1511   1.384       .  A
C1503      C1514   1.397       .  A
C1504      C1505   1.377       .  A
C1504      H1516   1.082       .  S
C1505      H1517   1.082       .  S
C1506      C1507   1.404       .  A
C1506      H1518   1.082       .  S
C1507      H1519   1.082       .  S
C1508      C1509   1.363       .  A
C1508      H1520   1.082       .  S
C1509      H1521   1.082       .  S
C1510      C1511   1.374       .  A
C1510      H1522   1.082       .  S
C1511      H1523   1.079       .  S
C1512      C2580   1.477       .  S
C1513      C2589   1.467       .  S
C1526      C2541   1.478       .  S
C1526      N1527   1.363       .  A
C1526      N1531   1.359       .  A
N1527      C1528   1.356       .  A
C1528      C2553   1.467       .  S
C1528      N1529   1.350       .  A
N1529      C1530   1.348       .  A
C1530      C2565   1.478       .  S
C1530      N1531   1.353       .  A
C1532      C2532   1.475       .  S
C1532      N1533   1.361       .  A
C1532      N1537   1.365       .  A
N1533      C1534   1.348       .  A
C1534      C2577   1.463       .  S
C1534      N1535   1.345       .  A
N1535      C1536   1.349       .  A
C1536      C2517   1.477       .  S
C1536      N1537   1.366       .  A
N1538      C1543   1.348       .  A
N1538      C1542   1.342       .  A
N1538      H1570   1.044       .  S
N1539      C1546   1.354       .  A
N1539      C1547   1.353       .  A
N1540      C1545   1.372       .  A
N1540      C1544   1.370       .  A
N1540      H1571   1.041       .  S
N1541      C1548   1.342       .  A
N1541      C1549   1.336       .  A
C1542      C1550   1.387       .  A
C1542      C1558   1.399       .  A
C1543      C1559   1.405       .  A
C1543      C1551   1.386       .  A
C1544      C1552   1.391       .  A
C1544      C1561   1.463       .  A
C1545      C1560   1.462       .  A
C1545      C1553   1.390       .  A
C1546      C1558   1.400       .  A
C1546      C1554   1.376       .  A
C1547      C1561   1.420       .  A
C1547      C1555   1.384       .  A
C1548      C1556   1.378       .  A
C1548      C1559   1.384       .  A
C1549      C1557   1.394       .  A
C1549      C1560   1.403       .  A
C1550      C1551   1.380       .  A
C1550      H1562   1.082       .  S
C1551      H1563   1.082       .  S
C1552      C1553   1.412       .  A
C1552      H1564   1.082       .  S
C1553      H1565   1.082       .  S
C1554      C1555   1.368       .  A
C1554      H1566   1.080       .  S
C1555      H1567   1.076       .  S
C1556      C1557   1.373       .  A
C1556      H1568   1.081       .  S
C1557      H1569   1.083       .  S
C1558      C2544   1.469       .  S
C1559      C2520   1.478       .  S
C1572      C2505   1.455       .  S
C1572      N1573   1.350   1_455  A
C1572      N1577   1.354       .  A
N1573      C1574   1.354       .  A
C1574      C2481   1.461       .  S
C1574      N1575   1.355   1_655  A
N1575      C1576   1.359       .  A
C1576      C2493   1.463       .  S
C1576      N1577   1.352       .  A
N1578      C1583   1.344       .  A
N1578      C1582   1.346       .  A
N1578      H1610   1.039       .  S
N1579      C1586   1.346       .  A
N1579      C1587   1.345       .  A
N1580      C1585   1.364       .  A
N1580      C1584   1.370       .  A
N1580      H1611   1.041       .  S
N1581      C1588   1.356       .  A
N1581      C1589   1.350       .  A
C1582      C1590   1.384       .  A
C1582      C1598   1.402       .  A
C1583      C1599   1.406       .  A
C1583      C1591   1.388       .  A
C1584      C1592   1.391       .  A
C1584      C1601   1.454       .  A
C1585      C1600   1.448       .  A
C1585      C1593   1.388       .  A
C1586      C1598   1.404       .  A
C1586      C1594   1.387       .  A
C1587      C1601   1.401       .  A
C1587      C1595   1.387       .  A
C1588      C1596   1.386       .  A
C1588      C1599   1.414       .  A
C1589      C1597   1.388       .  A
C1589      C1600   1.411       .  A
C1590      C1591   1.383       .  A
C1590      H1602   1.082       .  S
C1591      H1603   1.082       .  S
C1592      C1593   1.405       .  A
C1592      H1604   1.081       .  S
C1593      H1605   1.082       .  S
C1594      C1595   1.369       .  A
C1594      H1606   1.082       .  S
C1595      H1607   1.083       .  S
C1596      C1597   1.366       .  A
C1596      H1608   1.081       .  S
C1597      H1609   1.083       .  S
C1598      C2496   1.470       .  S
C1599      C2529   1.483       .  S
C1601      C1962   1.536       .  S
N1612      C1617   1.342       .  A
N1612      C1616   1.341       .  A
N1612      H1644   1.038       .  S
N1613      C1620   1.349       .  A
N1613      C1621   1.346       .  A
N1614      C1619   1.368       .  A
N1614      C1618   1.374       .  A
N1614      H1645   1.039       .  S
N1615      C1622   1.357       .  A
N1615      C1623   1.348       .  A
C1616      C1624   1.387       .  A
C1616      C1632   1.398       .  A
C1617      C1633   1.396       .  A
C1617      C1625   1.385       .  A
C1618      C1626   1.389       .  A
C1618      C1635   1.461       .  A
C1619      C1634   1.456       .  A
C1619      C1627   1.390       .  A
C1620      C1632   1.405       .  A
C1620      C1628   1.384       .  A
C1621      C1635   1.407       .  A
C1621      C1629   1.390       .  A
C1622      C1630   1.382       .  A
C1622      C1633   1.408       .  A
C1623      C1631   1.389       .  A
C1623      C1634   1.414       .  A
C1624      C1625   1.378       .  A
C1624      H1636   1.082       .  S
C1625      H1637   1.082       .  S
C1626      C1627   1.407       .  A
C1626      H1638   1.082       .  S
C1627      H1639   1.082       .  S
C1628      C1629   1.369       .  A
C1628      H1640   1.082       .  S
C1629      H1641   1.081       .  S
C1630      C1631   1.358       .  A
C1630      H1642   1.082       .  S
C1631      H1643   1.079       .  S
C1632      C2604   1.465       .  S
C1633      C2484   1.473       .  S
N1646      C1651   1.344       .  A
N1646      C1650   1.338       .  A
N1646      H1678   1.044       .  S
N1647      C1654   1.349       .  A
N1647      C1655   1.349       .  A
N1648      C1653   1.367       .  A
N1648      C1652   1.370       .  A
N1648      H1679   1.041       .  S
N1649      C1656   1.348       .  A
N1649      C1657   1.341       .  A
C1650      C1658   1.388       .  A
C1650      C1666   1.395       .  A
C1651      C1667   1.397       .  A
C1651      C1659   1.386       .  A
C1652      C1660   1.391       .  A
C1652      C1669   1.460       .  A
C1653      C1668   1.457       .  A
C1653      C1661   1.390       .  A
C1654      C1666   1.394       .  A
C1654      C1662   1.376       .  A
C1655      C1669   1.420       .  A
C1655      C1663   1.397       .  A
C1656      C1664   1.372       .  A
C1656      C1667   1.385       .  A
C1657      C1665   1.390       .  A
C1657      C1668   1.406       .  A
C1658      C1659   1.381       .  A
C1658      H1670   1.082       .  S
C1659      H1671   1.082       .  S
C1660      C1661   1.411       .  A
C1660      H1672   1.082   1_565  S
C1661      H1673   1.082   1_565  S
C1662      C1663   1.364       .  A
C1662      H1674   1.083       .  S
C1663      H1675   1.077       .  S
C1664      C1665   1.366       .  A
C1664      H1676   1.080       .  S
C1665      H1677   1.080       .  S
C1666      C2616   1.459       .  S
C1667      C2568   1.465       .  S
N1680      C1685   1.348       .  A
N1680      C1684   1.344       .  A
N1680      H1712   1.040       .  S
N1681      C1688   1.358       .  A
N1681      C1689   1.354       .  A
N1682      C1687   1.373       .  A
N1682      C1686   1.360       .  A
N1682      H1713   1.038       .  S
N1683      C1690   1.340       .  A
N1683      C1691   1.337       .  A
C1684      C1692   1.386       .  A
C1684      C1700   1.401       .  A
C1685      C1701   1.408       .  A
C1685      C1693   1.388       .  A
C1686      C1694   1.390       .  A
C1686      C1703   1.451       .  A
C1687      C1702   1.456       .  A
C1687      C1695   1.389       .  A
C1688      C1700   1.413       .  A
C1688      C1696   1.383       .  A
C1689      C1703   1.424       .  A
C1689      C1697   1.392       .  A
C1690      C1698   1.383       .  A
C1690      C1701   1.389       .  A
C1691      C1699   1.389       .  A
C1691      C1702   1.397       .  A
C1692      C1693   1.377       .  A
C1692      H1704   1.083       .  S
C1693      H1705   1.082       .  S
C1694      C1695   1.408       .  A
C1694      H1706   1.082   1_556  S
C1695      H1707   1.082   1_556  S
C1696      C1697   1.365       .  A
C1696      H1708   1.082       .  S
C1697      H1709   1.082       .  S
C1698      C1699   1.371       .  A
C1698      H1710   1.083   1_455  S
C1699      H1711   1.082   1_455  S
C1700      C2556   1.478       .  S
C1701      C2508   1.464       .  S
C1714      C2445   1.479       .  S
C1714      N1715   1.347       .  A
C1714      N1719   1.360       .  A
N1715      C1716   1.347       .  A
C1716      C2460   1.479       .  S
C1716      N1717   1.353       .  A
N1717      C1718   1.362       .  A
C1718      C2469   1.474       .  S
C1718      N1719   1.362       .  A
N1720      C1725   1.344       .  A
N1720      C1724   1.352       .  A
N1720      H1752   1.041       .  S
N1721      C1728   1.346       .  A
N1721      C1729   1.342       .  A
N1722      C1727   1.364       .  A
N1722      C1726   1.371       .  A
N1722      H1753   1.039       .  S
N1723      C1730   1.358       .  A
N1723      C1731   1.356       .  A
C1724      C1732   1.383       .  A
C1724      C1740   1.401       .  A
C1725      C1741   1.405       .  A
C1725      C1733   1.391       .  A
C1726      C1734   1.388       .  A
C1726      C1743   1.452       .  A
C1727      C1742   1.452       .  A
C1727      C1735   1.390       .  A
C1728      C1740   1.385       .  A
C1728      C1736   1.375       .  A
C1729      C1743   1.412       .  A
C1729      C1737   1.397       .  A
C1730      C1738   1.382       .  A
C1730      C1741   1.414       .  A
C1731      C1739   1.390       .  A
C1731      C1742   1.424       .  A
C1732      C1733   1.373       .  A
C1732      H1744   1.082       .  S
C1733      H1745   1.082       .  S
C1734      C1735   1.405       .  A
C1734      H1746   1.082       .  S
C1735      H1747   1.082       .  S
C1736      C1737   1.369       .  A
C1736      H1748   1.082       .  S
C1737      H1749   1.080       .  S
C1738      C1739   1.359       .  A
C1738      H1750   1.083       .  S
C1739      H1751   1.082       .  S
C1740      C2433   1.478       .  S
C1741      C2457   1.473       .  S
C1754      C2436   1.487       .  S
C1754      N1755   1.361       .  A
C1754      N1759   1.356       .  A
N1755      C1756   1.357       .  A
C1756      C2409   1.476       .  S
C1756      N1757   1.354       .  A
N1757      C1758   1.352       .  A
C1758      C2421   1.478       .  S
C1758      N1759   1.358       .  A
C1760      C2385   1.456       .  S
C1760      N1761   1.353       .  A
C1760      N1765   1.346       .  A
N1761      C1762   1.360       .  A
C1762      C2373   1.479       .  S
C1762      N1763   1.361       .  A
N1763      C1764   1.355       .  A
C1764      C2397   1.460   1_655  S
C1764      N1765   1.346       .  A
C1766      C2364   1.476       .  S
C1766      N1767   1.354       .  A
C1766      N1771   1.365       .  A
N1767      C1768   1.354   1_455  A
C1768      C2349   1.482       .  S
C1768      N1769   1.350       .  A
N1769      C1770   1.356       .  A
C1770      C2337   1.469       .  S
C1770      N1771   1.359   1_655  A
N1772      C1777   1.348       .  A
N1772      C1776   1.343       .  A
N1772      H1804   1.043       .  S
N1773      C1780   1.348       .  A
N1773      C1781   1.351       .  A
N1774      C1779   1.367       .  A
N1774      C1778   1.368       .  A
N1774      H1805   1.042       .  S
N1775      C1782   1.347       .  A
N1775      C1783   1.338       .  A
C1776      C1784   1.385       .  A
C1776      C1792   1.397       .  A
C1777      C1793   1.408       .  A
C1777      C1785   1.390       .  A
C1778      C1786   1.390       .  A
C1778      C1795   1.455       .  A
C1779      C1794   1.454       .  A
C1779      C1787   1.390       .  A
C1780      C1792   1.395       .  A
C1780      C1788   1.379       .  A
C1781      C1795   1.418       .  A
C1781      C1789   1.391       .  A
C1782      C1790   1.380       .  A
C1782      C1793   1.393       .  A
C1783      C1791   1.394       .  A
C1783      C1794   1.406       .  A
C1784      C1785   1.375       .  A
C1784      H1796   1.082       .  S
C1785      H1797   1.082       .  S
C1786      C1787   1.408       .  A
C1786      H1798   1.082       .  S
C1787      H1799   1.082       .  S
C1788      C1789   1.366       .  A
C1788      H1800   1.083       .  S
C1789      H1801   1.080       .  S
C1790      C1791   1.373       .  A
C1790      H1802   1.083       .  S
C1791      H1803   1.083       .  S
C1792      C2400   1.465       .  S
C1793      C2361   1.477       .  S
N1806      C1811   1.346       .  A
N1806      C1810   1.354       .  A
N1806      H1838   1.042       .  S
N1807      C1814   1.340       .  A
N1807      C1815   1.335       .  A
N1808      C1813   1.357       .  A
N1808      C1812   1.366       .  A
N1808      H1839   1.042       .  S
N1809      C1816   1.359       .  A
N1809      C1817   1.359       .  A
C1810      C1818   1.386       .  A
C1810      C1826   1.415       .  A
C1811      C1827   1.414       .  A
C1811      C1819   1.389       .  A
C1812      C1820   1.389       .  A
C1812      C1829   1.443       .  A
C1813      C1828   1.437       .  A
C1813      C1821   1.388       .  A
C1814      C1826   1.394       .  A
C1814      C1822   1.385       .  A
C1815      C1829   1.391       .  A
C1815      C1823   1.385       .  A
C1816      C1824   1.387       .  A
C1816      C1827   1.424       .  A
C1817      C1825   1.383       .  A
C1817      C1828   1.420       .  A
C1818      C1819   1.386       .  A
C1818      H1830   1.082       .  S
C1819      H1831   1.082       .  S
C1820      C1821   1.404       .  A
C1820      H1832   1.082       .  S
C1821      H1833   1.082       .  S
C1822      C1823   1.374       .  A
C1822      H1834   1.083       .  S
C1823      H1835   1.080       .  S
C1824      C1825   1.363       .  A
C1824      H1836   1.080       .  S
C1825      H1837   1.079       .  S
C1826      C2412   1.480       .  S
C1827      C2340   1.498       .  S
C1828      C1960   1.515       .  S
N1840      C1845   1.341       .  A
N1840      C1844   1.347       .  A
N1840      H1872   1.040       .  S
N1841      C1848   1.338       .  A
N1841      C1849   1.334       .  A
N1842      C1847   1.360       .  A
N1842      C1846   1.370       .  A
N1842      H1873   1.042       .  S
N1843      C1850   1.359       .  A
N1843      C1851   1.354       .  A
C1844      C1852   1.387       .  A
C1844      C1860   1.408       .  A
C1845      C1861   1.402       .  A
C1845      C1853   1.387       .  A
C1846      C1854   1.388   1_554  A
C1846      C1863   1.448       .  A
C1847      C1862   1.445       .  A
C1847      C1855   1.390   1_554  A
C1848      C1860   1.393       .  A
C1848      C1856   1.386       .  A
C1849      C1863   1.383       .  A
C1849      C1857   1.384       .  A
C1850      C1858   1.383       .  A
C1850      C1861   1.415       .  A
C1851      C1859   1.389       .  A
C1851      C1862   1.421       .  A
C1852      C1853   1.381       .  A
C1852      H1864   1.082       .  S
C1853      H1865   1.082       .  S
C1854      C1855   1.406       .  A
C1854      H1866   1.082       .  S
C1855      H1867   1.082       .  S
C1856      C1857   1.375       .  A
C1856      H1868   1.082       .  S
C1857      H1869   1.080       .  S
C1858      C1859   1.362       .  A
C1858      H1870   1.080       .  S
C1859      H1871   1.080       .  S
C1860      C2388   1.462       .  S
C1861      C2472   1.484       .  S
N1874      C1879   1.343       .  A
N1874      C1878   1.353       .  A
N1874      H1906   1.042       .  S
N1875      C1882   1.344       .  A
N1875      C1883   1.338       .  A
N1876      C1881   1.366       .  A
N1876      C1880   1.370       .  A
N1876      H1907   1.040       .  S
N1877      C1884   1.355       .  A
N1877      C1885   1.358       .  A
C1878      C1886   1.385       .  A
C1878      C1894   1.406       .  A
C1879      C1895   1.404       .  A
C1879      C1887   1.389       .  A
C1880      C1888   1.389       .  A
C1880      C1897   1.453       .  A
C1881      C1896   1.453       .  A
C1881      C1889   1.390       .  A
C1882      C1894   1.388       .  A
C1882      C1890   1.376       .  A
C1883      C1897   1.402       .  A
C1883      C1891   1.393       .  A
C1884      C1892   1.383       .  A
C1884      C1895   1.413       .  A
C1885      C1893   1.391       .  A
C1885      C1896   1.424       .  A
C1886      C1887   1.377       .  A
C1886      H1898   1.082       .  S
C1887      H1899   1.082       .  S
C1888      C1889   1.406       .  A
C1888      H1900   1.082       .  S
C1889      H1901   1.082       .  S
C1890      C1891   1.365       .  A
C1890      H1902   1.076       .  S
C1891      H1903   1.083       .  S
C1892      C1893   1.365       .  A
C1892      H1904   1.083       .  S
C1893      H1905   1.081       .  S
C1894      C2424   1.474       .  S
C1895      C2376   1.470       .  S
N1908      C1913   1.346       .  A
N1908      C1912   1.342       .  A
N1908      H1940   1.044       .  S
N1909      C1916   1.348       .  A
N1909      C1917   1.347       .  A
N1910      C1915   1.369       .  A
N1910      C1914   1.368       .  A
N1910      H1941   1.041       .  S
N1911      C1918   1.351       .  A
N1911      C1919   1.345       .  A
C1912      C1920   1.387       .  A
C1912      C1928   1.397       .  A
C1913      C1929   1.401       .  A
C1913      C1921   1.387       .  A
C1914      C1922   1.391       .  A
C1914      C1931   1.459       .  A
C1915      C1930   1.455       .  A
C1915      C1923   1.389       .  A
C1916      C1928   1.392       .  A
C1916      C1924   1.379       .  A
C1917      C1931   1.414       .  A
C1917      C1925   1.392       .  A
C1918      C1926   1.372       .  A
C1918      C1929   1.395       .  A
C1919      C1927   1.385       .  A
C1919      C1930   1.409       .  A
C1920      C1921   1.378       .  A
C1920      H1932   1.082       .  S
C1921      H1933   1.082       .  S
C1922      C1923   1.410       .  A
C1922      H1934   1.082       .  S
C1923      H1935   1.082       .  S
C1924      C1925   1.370       .  A
C1924      H1936   1.082       .  S
C1925      H1937   1.082       .  S
C1926      C1927   1.370       .  A
C1926      H1938   1.079       .  S
C1927      H1939   1.078       .  S
C1928      C2448   1.464       .  S
C1929      C2352   1.483       .  S
O1942      C1958   1.280       .  A
O1942     Zn1948   2.083       .  S
C1943      O1959   1.277       .  A
C1943      O1956   1.285       .  A
O1944      C1957   1.273       .  A
O1944     Cd1951   2.111       .  S
O1945      C1963   1.298       .  A
O1945     Cd1954   2.156       .  S
O1946      C1960   1.283       .  A
O1946     Cd1950   2.128   1_655  S
O1947      C1958   1.283       .  A
O1947     Cd1950   2.144       .  S
Zn1948     O1959   2.046   1_455  S
Zn1948     O1961   2.119       .  S
Zn1948     O1953   1.952       .  S
O1949      C1960   1.285       .  A
O1949     Cd1954   2.150       .  S
Cd1950     O1952   2.154       .  S
Cd1950     O1953   2.023       .  S
Cd1951     O1955   2.126       .  S
Cd1951     O1964   2.086       .  S
Cd1951     O1953   2.127       .  S
O1952      C1962   1.295       .  A
O1953     Cd1954   2.034   1_455  S
Cd1954     O1956   2.173       .  S
O1955      C1962   1.276       .  A
C1957      O1961   1.296       .  A
C1957      C2114   1.519       .  S
C1963      O1964   1.271   1_655  A
C1965      C2316   1.493       .  S
C1965      N1966   1.366   1_455  A
C1965      N1970   1.363   1_455  A
N1966      C1967   1.357       .  A
C1967      C2328   1.466   1_556  S
C1967      N1968   1.350   1_556  A
N1968      C1969   1.346       .  A
C1969      C2301   1.459       .  S
C1969      N1970   1.357   1_554  A
N1971      C1976   1.349       .  A
N1971      C1975   1.346       .  A
N1971      H2003   1.044       .  S
N1972      C1979   1.370       .  A
N1972      C1980   1.366       .  A
N1973      C1978   1.360       .  A
N1973      C1977   1.358       .  A
N1973      H2004   1.041       .  S
N1974      C1981   1.347       .  A
N1974      C1982   1.342       .  A
C1975      C1983   1.387       .  A
C1975      C1991   1.402       .  A
C1976      C1992   1.405       .  A
C1976      C1984   1.387       .  A
C1977      C1985   1.389       .  A
C1977      C1994   1.420       .  A
C1978      C1993   1.421       .  A
C1978      C1986   1.387       .  A
C1979      C1991   1.452       .  A
C1979      C1987   1.388       .  A
C1980      C1994   1.454       .  A
C1980      C1988   1.389       .  A
C1981      C1989   1.385       .  A
C1981      C1992   1.405       .  A
C1982      C1990   1.387       .  A
C1982      C1993   1.403       .  A
C1983      C1984   1.370       .  A
C1983      H1995   1.083       .  S
C1984      H1996   1.082       .  S
C1985      C1986   1.364       .  A
C1985      H1997   1.082       .  S
C1986      H1998   1.082       .  S
C1987      C1988   1.404       .  A
C1987      H1999   1.081       .  S
C1988      H2000   1.082       .  S
C1989      C1990   1.378       .  A
C1989      H2001   1.082       .  S
C1990      H2002   1.082       .  S
C1992      C2304   1.482       .  S
C1993      C2289   1.482       .  S
C2005      C2268   1.461       .  S
C2005      N2006   1.351   1_655  A
C2005      N2010   1.352   1_545  A
N2006      C2007   1.356       .  A
C2007      C2253   1.473       .  S
C2007      N2008   1.356   1_545  A
N2008      C2009   1.360       .  A
C2009      C2280   1.479       .  S
C2009      N2010   1.351   1_455  A
C2011      C2292   1.486       .  S
C2011      N2012   1.365       .  A
C2011      N2016   1.364       .  A
N2012      C2013   1.355       .  A
C2013      C2244   1.468       .  S
C2013      N2014   1.347       .  A
N2014      C2015   1.353       .  A
C2015      C2229   1.478       .  S
C2015      N2016   1.360       .  A
N2017      C2022   1.348       .  A
N2017      C2021   1.337       .  A
N2017      H2049   1.034       .  S
N2018      C2025   1.362       .  A
N2018      C2026   1.356       .  A
N2019      C2024   1.377       .  A
N2019      C2023   1.365       .  A
N2019      H2050   1.038       .  S
N2020      C2027   1.343       .  A
N2020      C2028   1.343       .  A
C2021      C2029   1.393       .  A
C2021      C2037   1.408       .  A
C2022      C2038   1.402       .  A
C2022      C2030   1.383       .  A
C2023      C2031   1.395       .  A
C2023      C2040   1.464       .  A
C2024      C2039   1.459       .  A
C2024      C2032   1.386       .  A
C2025      C2037   1.426       .  A
C2025      C2033   1.383       .  A
C2026      C2040   1.436       .  A
C2026      C2034   1.395       .  A
C2027      C2035   1.390       .  A
C2027      C2038   1.392       .  A
C2028      C2036   1.383       .  A
C2028      C2039   1.385       .  A
C2029      C2030   1.379       .  A
C2029      H2041   1.082       .  S
C2030      H2042   1.083       .  S
C2031      C2032   1.410       .  A
C2031      H2043   1.082       .  S
C2032      H2044   1.082       .  S
C2033      C2034   1.360       .  A
C2033      H2045   1.081       .  S
C2034      H2046   1.082       .  S
C2035      C2036   1.366       .  A
C2035      H2047   1.082       .  S
C2036      H2048   1.083       .  S
C2037      C2256   1.475       .  S
C2038      C2232   1.475       .  S
C2051      C2208   1.466   1_545  S
C2051      N2052   1.361       .  A
C2051      N2056   1.359       .  A
N2052      C2053   1.353       .  A
C2053      C2193   1.453       .  S
C2053      N2054   1.343   1_554  A
N2054      C2055   1.343       .  A
C2055      C2217   1.460       .  S
C2055      N2056   1.352   1_556  A
N2057      C2062   1.346       .  A
N2057      C2061   1.342       .  A
N2057      H2089   1.040       .  S
N2058      C2065   1.350       .  A
N2058      C2066   1.347       .  A
N2059      C2064   1.371       .  A
N2059      C2063   1.374       .  A
N2059      H2090   1.039       .  S
N2060      C2067   1.356       .  A
N2060      C2068   1.349       .  A
C2061      C2069   1.387       .  A
C2061      C2077   1.399       .  A
C2062      C2078   1.402       .  A
C2062      C2070   1.386       .  A
C2063      C2071   1.388       .  A
C2063      C2080   1.462       .  A
C2064      C2079   1.464       .  A
C2064      C2072   1.392       .  A
C2065      C2077   1.397       .  A
C2065      C2073   1.380       .  A
C2066      C2080   1.414       .  A
C2066      C2074   1.394       .  A
C2067      C2075   1.380       .  A
C2067      C2078   1.406       .  A
C2068      C2076   1.391       .  A
C2068      C2079   1.420       .  A
C2069      C2070   1.380       .  A
C2069      H2081   1.083       .  S
C2070      H2082   1.082       .  S
C2071      C2072   1.407       .  A
C2071      H2083   1.082       .  S
C2072      H2084   1.081       .  S
C2073      C2074   1.356       .  A
C2073      H2085   1.083       .  S
C2074      H2086   1.077       .  S
C2075      C2076   1.370       .  A
C2075      H2087   1.082       .  S
C2076      H2088   1.080       .  S
C2077      C2196   1.462       .  S
C2078      C2241   1.487       .  S
N2091      C2096   1.341       .  A
N2091      C2095   1.356       .  A
N2091      H2123   1.040       .  S
N2092      C2099   1.338       .  A
N2092      C2100   1.342       .  A
N2093      C2098   1.367       .  A
N2093      C2097   1.365       .  A
N2093      H2124   1.037       .  S
N2094      C2101   1.350       .  A
N2094      C2102   1.360       .  A
C2095      C2103   1.384       .  A
C2095      C2111   1.409       .  A
C2096      C2112   1.403       .  A
C2096      C2104   1.389       .  A
C2097      C2105   1.390       .  A
C2097      C2114   1.455       .  A
C2098      C2113   1.460       .  A
C2098      C2106   1.391       .  A
C2099      C2111   1.392       .  A
C2099      C2107   1.390       .  A
C2100      C2114   1.397       .  A
C2100      C2108   1.383       .  A
C2101      C2109   1.381       .  A
C2101      C2112   1.407       .  A
C2102      C2110   1.389       .  A
C2102      C2113   1.429       .  A
C2103      C2104   1.375       .  A
C2103      H2115   1.082       .  S
C2104      H2116   1.082       .  S
C2105      C2106   1.411       .  A
C2105      H2117   1.082       .  S
C2106      H2118   1.082       .  S
C2107      C2108   1.379       .  A
C2107      H2119   1.082       .  S
C2108      H2120   1.082       .  S
C2109      C2110   1.366       .  A
C2109      H2121   1.083       .  S
C2110      H2122   1.075       .  S
C2111      C2313   1.488       .  S
C2112      C2220   1.459       .  S
N2125      C2130   1.350       .  A
N2125      C2129   1.341       .  A
N2125      H2157   1.042       .  S
N2126      C2133   1.353       .  A
N2126      C2134   1.355       .  A
N2127      C2132   1.371       .  A
N2127      C2131   1.371       .  A
N2127      H2158   1.039       .  S
N2128      C2135   1.347       .  A
N2128      C2136   1.339       .  A
C2129      C2137   1.389       .  A
C2129      C2145   1.398       .  A
C2130      C2146   1.400       .  A
C2130      C2138   1.385       .  A
C2131      C2139   1.391       .  A
C2131      C2148   1.462       .  A
C2132      C2147   1.461       .  A
C2132      C2140   1.390       .  A
C2133      C2145   1.403       .  A
C2133      C2141   1.379       .  A
C2134      C2148   1.426       .  A
C2134      C2142   1.396       .  A
C2135      C2143   1.372       .  A
C2135      C2146   1.386       .  A
C2136      C2144   1.393       .  A
C2136      C2147   1.405       .  A
C2137      C2138   1.372       .  A
C2137      H2149   1.082       .  S
C2138      H2150   1.083       .  S
C2139      C2140   1.410       .  A
C2139      H2151   1.082       .  S
C2140      H2152   1.082       .  S
C2141      C2142   1.360       .  A
C2141      H2153   1.083       .  S
C2142      H2154   1.080       .  S
C2143      C2144   1.367       .  A
C2143      H2155   1.078   1_455  S
C2144      H2156   1.082       .  S
C2145      C2205   1.462       .  S
C2146      C2277   1.473       .  S
N2159      C2164   1.368       .  A
N2159      C2163   1.371       .  A
N2159      H2191   1.042       .  S
N2160      C2167   1.340       .  A
N2160      C2168   1.343       .  A
N2161      C2166   1.346       .  A
N2161      C2165   1.344       .  A
N2161      H2192   1.043       .  S
N2162      C2169   1.351       .  A
N2162      C2170   1.349       .  A
C2163      C2171   1.391       .  A
C2163      C2179   1.461       .  A
C2164      C2180   1.460       .  A
C2164      C2172   1.391       .  A
C2165      C2173   1.388       .  A
C2165      C2182   1.407       .  A
C2166      C2181   1.405       .  A
C2166      C2174   1.386       .  A
C2167      C2179   1.401       .  A
C2167      C2175   1.391       .  A
C2168      C2182   1.398       .  A
C2168      C2176   1.383       .  A
C2169      C2177   1.392       .  A
C2169      C2180   1.417       .  A
C2170      C2178   1.381       .  A
C2170      C2181   1.402       .  A
C2171      C2172   1.413       .  A
C2171      H2183   1.082       .  S
C2172      H2184   1.082       .  S
C2173      C2174   1.387       .  A
C2173      H2185   1.082       .  S
C2174      H2186   1.082       .  S
C2175      C2176   1.372       .  A
C2175      H2187   1.081       .  S
C2176      H2188   1.083       .  S
C2177      C2178   1.368       .  A
C2177      H2189   1.081       .  S
C2178      H2190   1.083       .  S
C2181      C2325   1.484       .  S
C2182      C2265   1.469       .  S
C2193      C2194   1.401       .  A
C2193      C2198   1.409       .  A
C2194      C2195   1.392       .  A
C2194      H2199   1.084       .  S
C2195      C2196   1.403       .  A
C2195      O2200   1.372       .  S
C2196      C2197   1.395       .  A
C2197      C2198   1.390       .  A
C2197      H2201   1.080       .  S
C2198      O2202   1.374   1_554  S
O2200      H2204   0.992       .  S
O2202      H2203   0.992       .  S
C2205      C2206   1.394       .  A
C2205      C2210   1.403       .  A
C2206      C2207   1.392       .  A
C2206      H2211   1.084       .  S
C2207      C2208   1.413       .  A
C2207      O2212   1.371   1_554  S
C2208      C2209   1.404       .  A
C2209      C2210   1.388       .  A
C2209      H2213   1.083       .  S
C2210      O2214   1.373       .  S
O2212      H2216   0.992       .  S
O2214      H2215   0.992       .  S
C2217      C2218   1.399       .  A
C2217      C2222   1.415       .  A
C2218      C2219   1.392       .  A
C2218      H2223   1.084       .  S
C2219      C2220   1.406       .  A
C2219      O2224   1.373       .  S
C2220      C2221   1.392       .  A
C2221      C2222   1.386       .  A
C2221      H2225   1.084       .  S
C2222      O2226   1.372       .  S
O2224      H2228   0.992       .  S
O2226      H2227   0.992   1_556  S
C2229      C2230   1.408       .  A
C2229      C2234   1.411       .  A
C2230      C2231   1.392       .  A
C2230      H2235   1.084       .  S
C2231      C2232   1.398       .  A
C2231      O2236   1.370       .  S
C2232      C2233   1.406       .  A
C2233      C2234   1.400       .  A
C2233      H2237   1.084       .  S
C2234      O2238   1.372       .  S
O2236      H2240   0.992       .  S
O2238      H2239   0.992       .  S
C2241      C2242   1.403       .  A
C2241      C2246   1.409       .  A
C2242      C2243   1.396       .  A
C2242      H2247   1.084       .  S
C2243      C2244   1.407       .  A
C2243      O2248   1.373       .  S
C2244      C2245   1.402       .  A
C2245      C2246   1.404       .  A
C2245      H2249   1.083       .  S
C2246      O2250   1.371       .  S
O2248      H2252   0.992       .  S
O2250      H2251   0.992       .  S
C2253      C2254   1.404       .  A
C2253      C2258   1.412   1_545  A
C2254      C2255   1.387       .  A
C2254      H2259   1.084       .  S
C2255      C2256   1.403       .  A
C2255      O2260   1.373       .  S
C2256      C2257   1.401       .  A
C2257      C2258   1.400   1_545  A
C2257      H2261   1.084   1_545  S
C2258      O2262   1.371       .  S
O2260      H2264   0.992       .  S
O2262      H2263   0.992       .  S
C2265      C2266   1.402       .  A
C2265      C2270   1.401       .  A
C2266      C2267   1.389       .  A
C2266      H2271   1.083       .  S
C2267      C2268   1.405       .  A
C2267      O2272   1.372       .  S
C2268      C2269   1.406       .  A
C2269      C2270   1.396       .  A
C2269      H2273   1.084       .  S
C2270      O2274   1.371       .  S
O2272      H2276   0.992       .  S
O2274      H2275   0.992       .  S
C2277      C2278   1.396   1_455  A
C2277      C2282   1.407       .  A
C2278      C2279   1.399       .  A
C2278      H2283   1.084       .  S
C2279      C2280   1.421   1_655  A
C2279      O2284   1.372       .  S
C2280      C2281   1.402       .  A
C2281      C2282   1.388       .  A
C2281      H2285   1.083       .  S
C2282      O2286   1.373       .  S
O2284      H2288   0.992       .  S
O2286      H2287   0.992       .  S
C2289      C2290   1.399       .  A
C2289      C2294   1.403       .  A
C2290      C2291   1.394       .  A
C2290      H2295   1.084       .  S
C2291      C2292   1.413       .  A
C2291      O2296   1.371       .  S
C2292      C2293   1.410       .  A
C2293      C2294   1.404       .  A
C2293      H2297   1.083       .  S
C2294      O2298   1.369       .  S
O2296      H2300   0.992       .  S
O2298      H2299   0.991       .  S
C2301      C2302   1.400   1_655  A
C2301      C2306   1.402       .  A
C2302      C2303   1.389       .  A
C2302      H2307   1.084       .  S
C2303      C2304   1.406       .  A
C2303      O2308   1.372       .  S
C2304      C2305   1.411   1_455  A
C2305      C2306   1.403       .  A
C2305      H2309   1.084       .  S
C2306      O2310   1.371       .  S
O2308      H2312   0.992       .  S
O2310      H2311   0.992       .  S
C2313      C2314   1.405       .  A
C2313      C2318   1.402       .  A
C2314      C2315   1.398       .  A
C2314      H2319   1.084       .  S
C2315      C2316   1.412       .  A
C2315      O2320   1.372       .  S
C2316      C2317   1.413       .  A
C2317      C2318   1.403       .  A
C2317      H2321   1.083       .  S
C2318      O2322   1.371       .  S
O2320      H2324   0.992       .  S
O2322      H2323   0.992       .  S
C2325      C2326   1.398       .  A
C2325      C2330   1.415       .  A
C2326      C2327   1.395       .  A
C2326      H2331   1.083       .  S
C2327      C2328   1.410       .  A
C2327      O2332   1.374   1_655  S
C2328      C2329   1.398   1_554  A
C2329      C2330   1.402   1_556  A
C2329      H2333   1.084       .  S
C2330      O2334   1.371       .  S
O2332      H2336   0.992   1_455  S
O2334      H2335   0.991   1_554  S
C2337      C2338   1.401       .  A
C2337      C2342   1.405       .  A
C2338      C2339   1.392       .  A
C2338      H2343   1.084       .  S
C2339      C2340   1.410       .  A
C2339      O2344   1.372       .  S
C2340      C2341   1.413       .  A
C2341      C2342   1.405       .  A
C2341      H2345   1.084       .  S
C2342      O2346   1.372   1_655  S
O2344      H2348   0.992       .  S
O2346      H2347   0.991       .  S
C2349      C2350   1.403       .  A
C2349      C2354   1.417       .  A
C2350      C2351   1.390       .  A
C2350      H2355   1.083       .  S
C2351      C2352   1.409       .  A
C2351      O2356   1.372       .  S
C2352      C2353   1.401       .  A
C2353      C2354   1.401       .  A
C2353      H2357   1.084       .  S
C2354      O2358   1.372       .  S
O2356      H2360   0.992       .  S
O2358      H2359   0.992       .  S
C2361      C2362   1.396       .  A
C2361      C2366   1.412       .  A
C2362      C2363   1.398       .  A
C2362      H2367   1.084       .  S
C2363      C2364   1.417       .  A
C2363      O2368   1.371       .  S
C2364      C2365   1.399       .  A
C2365      C2366   1.395       .  A
C2365      H2369   1.084       .  S
C2366      O2370   1.373       .  S
O2368      H2372   0.992       .  S
O2370      H2371   0.992       .  S
C2373      C2374   1.409       .  A
C2373      C2378   1.415       .  A
C2374      C2375   1.395       .  A
C2374      H2379   1.083       .  S
C2375      C2376   1.401       .  A
C2375      O2380   1.372       .  S
C2376      C2377   1.397       .  A
C2377      C2378   1.393       .  A
C2377      H2381   1.084       .  S
C2378      O2382   1.372       .  S
O2380      H2384   0.992       .  S
O2382      H2383   0.992       .  S
C2385      C2386   1.404       .  A
C2385      C2390   1.406       .  A
C2386      C2387   1.390       .  A
C2386      H2391   1.084   1_655  S
C2387      C2388   1.400       .  A
C2387      O2392   1.371       .  S
C2388      C2389   1.401       .  A
C2389      C2390   1.393       .  A
C2389      H2393   1.084       .  S
C2390      O2394   1.372       .  S
O2392      H2396   0.992       .  S
O2394      H2395   0.992       .  S
C2397      C2398   1.398       .  A
C2397      C2402   1.412       .  A
C2398      C2399   1.393       .  A
C2398      H2403   1.084       .  S
C2399      C2400   1.408       .  A
C2399      O2404   1.372       .  S
C2400      C2401   1.394       .  A
C2401      C2402   1.392       .  A
C2401      H2405   1.084       .  S
C2402      O2406   1.373   1_455  S
O2404      H2408   0.992       .  S
O2406      H2407   0.992   1_655  S
C2409      C2410   1.403       .  A
C2409      C2414   1.414       .  A
C2410      C2411   1.393       .  A
C2410      H2415   1.084       .  S
C2411      C2412   1.410       .  A
C2411      O2416   1.373       .  S
C2412      C2413   1.398       .  A
C2413      C2414   1.401       .  A
C2413      H2417   1.083       .  S
C2414      O2418   1.371       .  S
O2416      H2420   0.992       .  S
O2418      H2419   0.992       .  S
C2421      C2422   1.413       .  A
C2421      C2426   1.408       .  A
C2422      C2423   1.398       .  A
C2422      H2427   1.083       .  S
C2423      C2424   1.400       .  A
C2423      O2428   1.371       .  S
C2424      C2425   1.402       .  A
C2425      C2426   1.391       .  A
C2425      H2429   1.084       .  S
C2426      O2430   1.371       .  S
O2428      H2432   0.992       .  S
O2430      H2431   0.992       .  S
C2433      C2434   1.398       .  A
C2433      C2438   1.407       .  A
C2434      C2435   1.402       .  A
C2434      H2439   1.083       .  S
C2435      C2436   1.419       .  A
C2435      O2440   1.371       .  S
C2436      C2437   1.405       .  A
C2437      C2438   1.393       .  A
C2437      H2441   1.083       .  S
C2438      O2442   1.373       .  S
O2440      H2444   0.992       .  S
O2442      H2443   0.992       .  S
C2445      C2446   1.414       .  A
C2445      C2450   1.409       .  A
C2446      C2447   1.391       .  A
C2446      H2451   1.083       .  S
C2447      C2448   1.394       .  A
C2447      O2452   1.372       .  S
C2448      C2449   1.403       .  A
C2449      C2450   1.396       .  A
C2449      H2453   1.084       .  S
C2450      O2454   1.371       .  S
O2452      H2456   0.992       .  S
O2454      H2455   0.992       .  S
C2457      C2458   1.401       .  A
C2457      C2462   1.399       .  A
C2458      C2459   1.403       .  A
C2458      H2463   1.084       .  S
C2459      C2460   1.414       .  A
C2459      O2464   1.371       .  S
C2460      C2461   1.408       .  A
C2461      C2462   1.384       .  A
C2461      H2465   1.083       .  S
C2462      O2466   1.373       .  S
O2464      H2468   0.992       .  S
O2466      H2467   0.992       .  S
C2469      C2470   1.409       .  A
C2469      C2474   1.406       .  A
C2470      C2471   1.408       .  A
C2470      H2475   1.083       .  S
C2471      C2472   1.407       .  A
C2471      O2476   1.374       .  S
C2472      C2473   1.403       .  A
C2473      C2474   1.384       .  A
C2473      H2477   1.084       .  S
C2474      O2478   1.372       .  S
O2476      H2480   0.992       .  S
O2478      H2479   0.992       .  S
C2481      C2482   1.399       .  A
C2481      C2486   1.407       .  A
C2482      C2483   1.385       .  A
C2482      H2487   1.083       .  S
C2483      C2484   1.406       .  A
C2483      O2488   1.373       .  S
C2484      C2485   1.403       .  A
C2485      C2486   1.403       .  A
C2485      H2489   1.083       .  S
C2486      O2490   1.371       .  S
O2488      H2492   0.992       .  S
O2490      H2491   0.992       .  S
C2493      C2494   1.401       .  A
C2493      C2498   1.406       .  A
C2494      C2495   1.393       .  A
C2494      H2499   1.084       .  S
C2495      C2496   1.405       .  A
C2495      O2500   1.372       .  S
C2496      C2497   1.404       .  A
C2497      C2498   1.399       .  A
C2497      H2501   1.084       .  S
C2498      O2502   1.372       .  S
O2500      H2504   0.992       .  S
O2502      H2503   0.992       .  S
C2505      C2506   1.398       .  A
C2505      C2510   1.411       .  A
C2506      C2507   1.391       .  A
C2506      H2511   1.084       .  S
C2507      C2508   1.409       .  A
C2507      O2512   1.373       .  S
C2508      C2509   1.394       .  A
C2509      C2510   1.391       .  A
C2509      H2513   1.084       .  S
C2510      O2514   1.371   1_455  S
O2512      H2516   0.992       .  S
O2514      H2515   0.991       .  S
C2517      C2518   1.399       .  A
C2517      C2522   1.419       .  A
C2518      C2519   1.395       .  A
C2518      H2523   1.083       .  S
C2519      C2520   1.413       .  A
C2519      O2524   1.372       .  S
C2520      C2521   1.395       .  A
C2521      C2522   1.398       .  A
C2521      H2525   1.083       .  S
C2522      O2526   1.372       .  S
O2524      H2528   0.992       .  S
O2526      H2527   0.992       .  S
C2529      C2530   1.408       .  A
C2529      C2534   1.407       .  A
C2530      C2531   1.408       .  A
C2530      H2535   1.084       .  S
C2531      C2532   1.410       .  A
C2531      O2536   1.372       .  S
C2532      C2533   1.402       .  A
C2533      C2534   1.386       .  A
C2533      H2537   1.084       .  S
C2534      O2538   1.373       .  S
O2536      H2540   0.992       .  S
O2538      H2539   0.992       .  S
C2541      C2542   1.411       .  A
C2541      C2546   1.409       .  A
C2542      C2543   1.396       .  A
C2542      H2547   1.081       .  S
C2543      C2544   1.399       .  A
C2543      O2548   1.372       .  S
C2544      C2545   1.401       .  A
C2545      C2546   1.393       .  A
C2545      H2549   1.084       .  S
C2546      O2550   1.371       .  S
O2548      H2552   0.992       .  S
O2550      H2551   0.992       .  S
C2553      C2554   1.403       .  A
C2553      C2558   1.406       .  A
C2554      C2555   1.386       .  A
C2554      H2559   1.085       .  S
C2555      C2556   1.404       .  A
C2555      O2560   1.372       .  S
C2556      C2557   1.406       .  A
C2557      C2558   1.405       .  A
C2557      H2561   1.083       .  S
C2558      O2562   1.371       .  S
O2560      H2564   0.992       .  S
O2562      H2563   0.992       .  S
C2565      C2566   1.412       .  A
C2565      C2570   1.411       .  A
C2566      C2567   1.394       .  A
C2566      H2571   1.083       .  S
C2567      C2568   1.397       .  A
C2567      O2572   1.371       .  S
C2568      C2569   1.399       .  A
C2569      C2570   1.395       .  A
C2569      H2573   1.084       .  S
C2570      O2574   1.373       .  S
O2572      H2576   0.991       .  S
O2574      H2575   0.992       .  S
C2577      C2578   1.401       .  A
C2577      C2582   1.405       .  A
C2578      C2579   1.386       .  A
C2578      H2583   1.084       .  S
C2579      C2580   1.406       .  A
C2579      O2584   1.373       .  S
C2580      C2581   1.406       .  A
C2581      C2582   1.402       .  A
C2581      H2585   1.083       .  S
C2582      O2586   1.371       .  S
O2584      H2588   0.992       .  S
O2586      H2587   0.992       .  S
C2589      C2590   1.396       .  A
C2589      C2594   1.407       .  A
C2590      C2591   1.397       .  A
C2590      H2595   1.084       .  S
C2591      C2592   1.415       .  A
C2591      O2596   1.371       .  S
C2592      C2593   1.398       .  A
C2593      C2594   1.387       .  A
C2593      H2597   1.084       .  S
C2594      O2598   1.372       .  S
O2596      H2600   0.992       .  S
O2598      H2599   0.992       .  S
C2601      C2602   1.403       .  A
C2601      C2606   1.404       .  A
C2602      C2603   1.387       .  A
C2602      H2607   1.084       .  S
C2603      C2604   1.401       .  A
C2603      O2608   1.373       .  S
C2604      C2605   1.401       .  A
C2605      C2606   1.396       .  A
C2605      H2609   1.077       .  S
C2606      O2610   1.372       .  S
O2608      H2612   0.992       .  S
O2610      H2611   0.992       .  S
C2613      C2614   1.410       .  A
C2613      C2618   1.407       .  A
C2614      C2615   1.391       .  A
C2614      H2619   1.083       .  S
C2615      C2616   1.396       .  A
C2615      O2620   1.371       .  S
C2616      C2617   1.400       .  A
C2617      C2618   1.387       .  A
C2617      H2621   1.084       .  S
C2618      O2622   1.373       .  S
O2620      H2624   0.992   1_455  S
O2622      H2623   0.992       .  S
C2625      C2626   1.401       .  A
C2625      C2630   1.402       .  A
C2626      C2627   1.389       .  A
C2626      H2631   1.084       .  S
C2627      C2628   1.403       .  A
C2627      O2632   1.372       .  S
C2628      C2629   1.408       .  A
C2629      C2630   1.400       .  A
C2629      H2633   1.084       .  S
C2630      O2634   1.372       .  S
O2632      H2636   0.992       .  S
O2634      H2635   0.992       .  S
C2637      C2638   1.407       .  A
C2637      C2642   1.411       .  A
C2638      C2639   1.397       .  A
C2638      H2643   1.083       .  S
C2639      C2640   1.403       .  A
C2639      O2644   1.371       .  S
C2640      C2641   1.401       .  A
C2641      C2642   1.397       .  A
C2641      H2645   1.084       .  S
C2642      O2646   1.372       .  S
O2644      H2648   0.992       .  S
O2646      H2647   0.992       .  S
C2649      C2650   1.405       .  A
C2649      C2654   1.420       .  A
C2650      C2651   1.396       .  A
C2650      H2655   1.083       .  S
C2651      C2652   1.406       .  A
C2651      O2656   1.372       .  S
C2652      C2653   1.396       .  A
C2653      C2654   1.400       .  A
C2653      H2657   1.084       .  S
C2654      O2658   1.373       .  S
O2656      H2660   0.992       .  S
O2658      H2659   0.992       .  S
C2661      C2662   1.403       .  A
C2661      C2666   1.402       .  A
C2662      C2663   1.392       .  A
C2662      H2667   1.084       .  S
C2663      C2664   1.403       .  A
C2663      O2668   1.373       .  S
C2664      C2665   1.404       .  A
C2665      C2666   1.397       .  A
C2665      H2669   1.084       .  S
C2666      O2670   1.371       .  S
O2668      H2672   0.992       .  S
O2670      H2671   0.992       .  S
C2673      C2674   1.410       .  A
C2673      C2678   1.408       .  A
C2674      C2675   1.395       .  A
C2674      H2679   1.083       .  S
C2675      C2676   1.400       .  A
C2675      O2680   1.372       .  S
C2676      C2677   1.404       .  A
C2677      C2678   1.393       .  A
C2677      H2681   1.084       .  S
C2678      O2682   1.372       .  S
O2680      H2684   0.992       .  S
O2682      H2683   0.991       .  S
C2685      C2686   1.407       .  A
C2685      C2690   1.404       .  A
C2686      C2687   1.399       .  A
C2686      H2691   1.084       .  S
C2687      C2688   1.401       .  A
C2687      O2692   1.371       .  S
C2688      C2689   1.402       .  A
C2689      C2690   1.391       .  A
C2689      H2693   1.084       .  S
C2690      O2694   1.372       .  S
O2692      H2696   0.992       .  S
O2694      H2695   0.992       .  S
C2697      C2698   1.396       .  A
C2697      C2702   1.401       .  A
C2698      C2699   1.394       .  A
C2698      H2703   1.084       .  S
C2699      C2700   1.415       .  A
C2699      O2704   1.372       .  S
C2700      C2701   1.405       .  A
C2701      C2702   1.385       .  A
C2701      H2705   1.083       .  S
C2702      O2706   1.373       .  S
O2704      H2708   0.992       .  S
O2706      H2707   0.992       .  S
C2709      C2710   1.406       .  A
C2709      C2714   1.411       .  A
C2710      C2711   1.387       .  A
C2710      H2715   1.083       .  S
C2711      C2712   1.399       .  A
C2711      O2716   1.371       .  S
C2712      C2713   1.397       .  A
C2713      C2714   1.385       .  A
C2713      H2717   1.084       .  S
C2714      O2718   1.372   1_565  S
O2716      H2720   0.992       .  S
O2718      H2719   0.992       .  S
C2721      C2722   1.401       .  A
C2721      C2726   1.416       .  A
C2722      C2723   1.383       .  A
C2722      H2727   1.083       .  S
C2723      C2724   1.400       .  A
C2723      O2728   1.373       .  S
C2724      C2725   1.394       .  A
C2725      C2726   1.391       .  A
C2725      H2729   1.084       .  S
C2726      O2730   1.372       .  S
O2728      H2732   0.991       .  S
O2730      H2731   0.992       .  S
C2733      C2734   1.400       .  A
C2733      C2738   1.401       .  A
C2734      C2735   1.393       .  A
C2734      H2739   1.084       .  S
C2735      C2736   1.406       .  A
C2735      O2740   1.371       .  S
C2736      C2737   1.408       .  A
C2737      C2738   1.397       .  A
C2737      H2741   1.084       .  S
C2738      O2742   1.372       .  S
O2740      H2744   0.992       .  S
O2742      H2743   0.992       .  S
C2745      C2746   1.401   1_545  A
C2745      C2750   1.410       .  A
C2746      C2747   1.402       .  A
C2746      H2751   1.083       .  S
C2747      C2748   1.411       .  A
C2747      O2752   1.371       .  S
C2748      C2749   1.398   1_565  A
C2749      C2750   1.388       .  A
C2749      H2753   1.084       .  S
C2750      O2754   1.373       .  S
O2752      H2756   0.992       .  S
O2754      H2755   0.992       .  S
C2757      C2758   1.410       .  A
C2757      C2762   1.409       .  A
C2758      C2759   1.399       .  A
C2758      H2763   1.083       .  S
C2759      C2760   1.403       .  A
C2759      O2764   1.371       .  S
C2760      C2761   1.404       .  A
C2761      C2762   1.395       .  A
C2761      H2765   1.084       .  S
C2762      O2766   1.373       .  S
O2764      H2768   0.992       .  S
O2766      H2767   0.992       .  S
C2769      C2770   1.400       .  A
C2769      C2774   1.405       .  A
C2770      C2771   1.391       .  A
C2770      H2775   1.084       .  S
C2771      C2772   1.404       .  A
C2771      O2776   1.367       .  S
C2772      C2773   1.402       .  A
C2773      C2774   1.397       .  A
C2773      H2777   1.084       .  S
C2774      O2778   1.371       .  S
O2776      H2780   0.992       .  S
O2778      H2779   0.991       .  S
C2781      C2782   1.399       .  A
C2781      C2786   1.405       .  A
C2782      C2783   1.400       .  A
C2782      H2787   1.084       .  S
C2783      C2784   1.417       .  A
C2783      O2788   1.371       .  S
C2784      C2785   1.405       .  A
C2785      C2786   1.389       .  A
C2785      H2789   1.083       .  S
C2786      O2790   1.372       .  S
O2788      H2792   0.992       .  S
O2790      H2791   0.992       .  S
C2793      C2794   1.411       .  A
C2793      C2798   1.415       .  A
C2794      C2795   1.403       .  A
C2794      H2799   1.083       .  S
C2795      C2796   1.402       .  A
C2795      O2800   1.371       .  S
C2796      C2797   1.397       .  A
C2797      C2798   1.385       .  A
C2797      H2801   1.085       .  S
C2798      O2802   1.372       .  S
O2800      H2804   0.992       .  S
O2802      H2803   0.992       .  S
C2805      C2806   1.409       .  A
C2805      C2810   1.404       .  A
C2806      C2807   1.395       .  A
C2806      H2811   1.084       .  S
C2807      C2808   1.400       .  A
C2807      O2812   1.371       .  S
C2808      C2809   1.402       .  A
C2809      C2810   1.392       .  A
C2809      H2813   1.084       .  S
C2810      O2814   1.372       .  S
O2812      H2816   0.991       .  S
O2814      H2815   0.992       .  S
C2817      C2818   1.395       .  A
C2817      C2822   1.402       .  A
C2818      C2819   1.393       .  A
C2818      H2823   1.084       .  S
C2819      C2820   1.413       .  A
C2819      O2824   1.372       .  S
C2820      C2821   1.403       .  A
C2821      C2822   1.388       .  A
C2821      H2825   1.084       .  S
C2822      O2826   1.372       .  S
O2824      H2828   0.992   1_556  S
O2826      H2827   0.992       .  S
C2829      C2830   1.413       .  A
C2829      C2834   1.411       .  A
C2830      C2831   1.400       .  A
C2830      H2835   1.083       .  S
C2831      C2832   1.401       .  A
C2831      O2836   1.372       .  S
C2832      C2833   1.404       .  A
C2833      C2834   1.398       .  A
C2833      H2837   1.084       .  S
C2834      O2838   1.370   1_554  S
O2836      H2840   0.992       .  S
O2838      H2839   0.992       .  S
C2841      C2842   1.409       .  A
C2841      C2846   1.403       .  A
C2842      C2843   1.404       .  A
C2842      H2847   1.084       .  S
C2843      C2844   1.405       .  A
C2843      O2848   1.371   1_554  S
C2844      C2845   1.407       .  A
C2845      C2846   1.397       .  A
C2845      H2849   1.084       .  S
C2846      O2850   1.372       .  S
O2848      H2852   0.992       .  S
O2850      H2851   0.992       .  S
C2853      C2854   1.398       .  A
C2853      C2858   1.409       .  A
C2854      C2855   1.403       .  A
C2854      H2859   1.084       .  S
C2855      C2856   1.419       .  A
C2855      O2860   1.370       .  S
C2856      C2857   1.407       .  A
C2857      C2858   1.403       .  A
C2857      H2861   1.083       .  S
C2858      O2862   1.372       .  S
O2860      H2864   0.992       .  S
O2862      H2863   0.992       .  S
C2865      C2866   1.395       .  A
C2865      C2870   1.406       .  A
C2866      C2867   1.395       .  A
C2866      H2871   1.084       .  S
C2867      C2868   1.414       .  A
C2867      O2872   1.373       .  S
C2868      C2869   1.400       .  A
C2869      C2870   1.393       .  A
C2869      H2873   1.084       .  S
C2870      O2874   1.372       .  S
O2872      H2876   0.992       .  S
O2874      H2875   0.992       .  S
C2877      C2878   1.410       .  A
C2877      C2882   1.412       .  A
C2878      C2879   1.404       .  A
C2878      H2883   1.083       .  S
C2879      C2880   1.405       .  A
C2879      O2884   1.372       .  S
C2880      C2881   1.402       .  A
C2881      C2882   1.392       .  A
C2881      H2885   1.084       .  S
C2882      O2886   1.372       .  S
O2884      H2888   0.991       .  S
O2886      H2887   0.992       .  S
C2889      C2890   1.406       .  A
C2889      C2894   1.402       .  A
C2890      C2891   1.389       .  A
C2890      H2895   1.084       .  S
C2891      C2892   1.402       .  A
C2891      O2896   1.372       .  S
C2892      C2893   1.407       .  A
C2893      C2894   1.400       .  A
C2893      H2897   1.084       .  S
C2894      O2898   1.371       .  S
O2896      H2900   0.992       .  S
O2898      H2899   0.992       .  S
C2901      C2902   1.405       .  A
C2901      C2906   1.404       .  A
C2902      C2903   1.403       .  A
C2902      H2907   1.084       .  S
C2903      C2904   1.408       .  A
C2903      O2908   1.373       .  S
C2904      C2905   1.402       .  A
C2905      C2906   1.387       .  A
C2905      H2909   1.084       .  S
C2906      O2910   1.372       .  S
O2908      H2912   0.992       .  S
O2910      H2911   0.992       .  S
C2913      C2914   1.401   1_554  A
C2913      C2918   1.416       .  A
C2914      C2915   1.388       .  A
C2914      H2919   1.083       .  S
C2915      C2916   1.410       .  A
C2915      O2920   1.373       .  S
C2916      C2917   1.400   1_556  A
C2917      C2918   1.402       .  A
C2917      H2921   1.083       .  S
C2918      O2922   1.371       .  S
O2920      H2924   0.992       .  S
O2922      H2923   0.991       .  S
C2925      C2926   1.399       .  A
C2925      C2930   1.403       .  A
C2926      C2927   1.389       .  A
C2926      H2931   1.085       .  S
C2927      C2928   1.408       .  A
C2927      O2932   1.373       .  S
C2928      C2929   1.409       .  A
C2929      C2930   1.402       .  A
C2929      H2933   1.084       .  S
C2930      O2934   1.371       .  S
O2932      H2936   0.992       .  S
O2934      H2935   0.992       .  S
C2937      C2938   1.409       .  A
C2937      C2942   1.405       .  A
C2938      C2939   1.398       .  A
C2938      H2943   1.084       .  S
C2939      C2940   1.401       .  A
C2939      O2944   1.372       .  S
C2940      C2941   1.405       .  A
C2941      C2942   1.392       .  A
C2941      H2945   1.084       .  S
C2942      O2946   1.372       .  S
O2944      H2948   0.992       .  S
O2946      H2947   0.992       .  S
C2949      C2950   1.405       .  A
C2949      C2954   1.407       .  A
C2950      C2951   1.397       .  A
C2950      H2955   1.084       .  S
C2951      C2952   1.404       .  A
C2951      O2956   1.373       .  S
C2952      C2953   1.402       .  A
C2953      C2954   1.393       .  A
C2953      H2957   1.084       .  S
C2954      O2958   1.372       .  S
O2956      H2960   0.992       .  S
O2958      H2959   0.992       .  S
C2961      C2962   1.406       .  A
C2961      C2966   1.407       .  A
C2962      C2963   1.402       .  A
C2962      H2967   1.084       .  S
C2963      C2964   1.405       .  A
C2963      O2968   1.372       .  S
C2964      C2965   1.397       .  A
C2965      C2966   1.384       .  A
C2965      H2969   1.084       .  S
C2966      O2970   1.372       .  S
O2968      H2972   0.992       .  S
O2970      H2971   0.992       .  S
C2973      C2974   1.400       .  A
C2973      C2978   1.407       .  A
C2974      C2975   1.393       .  A
C2974      H2979   1.084       .  S
C2975      C2976   1.404       .  A
C2975      O2980   1.372       .  S
C2976      C2977   1.399       .  A
C2977      C2978   1.393       .  A
C2977      H2981   1.084       .  S
C2978      O2982   1.372       .  S
O2980      H2984   0.992       .  S
O2982      H2983   0.991       .  S
C2985      C2986   1.406       .  A
C2985      C2990   1.407       .  A
C2986      C2987   1.403       .  A
C2986      H2991   1.084       .  S
C2987      C2988   1.408       .  A
C2987      O2992   1.374       .  S
C2988      C2989   1.402       .  A
C2989      C2990   1.389       .  A
C2989      H2993   1.084       .  S
C2990      O2994   1.373       .  S
O2992      H2996   0.992       .  S
O2994      H2995   0.992       .  S
C2997      C2998   1.398       .  A
C2997      C3002   1.402       .  A
C2998      C2999   1.388       .  A
C2998      H3003   1.085   1_554  S
C2999      C3000   1.407       .  A
C2999      O3004   1.373       .  S
C3000      C3001   1.407       .  A
C3001      C3002   1.399       .  A
C3001      H3005   1.084       .  S
C3002      O3006   1.371       .  S
O3004      H3008   0.992       .  S
O3006      H3007   0.992       .  S
C3009      C3010   1.411       .  A
C3009      C3014   1.406   1_554  A
C3010      C3011   1.396       .  A
C3010      H3015   1.083       .  S
C3011      C3012   1.402   1_554  A
C3011      O3016   1.372       .  S
C3012      C3013   1.404       .  A
C3013      C3014   1.395       .  A
C3013      H3017   1.084       .  S
C3014      O3018   1.373       .  S
O3016      H3020   0.992       .  S
O3018      H3019   0.992       .  S
C3021      C3022   1.398       .  A
C3021      C3026   1.404       .  A
C3022      C3023   1.394       .  A
C3022      H3027   1.084       .  S
C3023      C3024   1.413       .  A
C3023      O3028   1.371       .  S
C3024      C3025   1.404       .  A
C3025      C3026   1.393       .  A
C3025      H3029   1.083       .  S
C3026      O3030   1.373       .  S
O3028      H3032   0.992       .  S
O3030      H3031   0.992       .  S
C3033      C3034   1.400       .  A
C3033      C3038   1.405       .  A
C3034      C3035   1.382       .  A
C3034      H3039   1.084       .  S
C3035      C3036   1.405       .  A
C3035      O3040   1.373       .  S
C3036      C3037   1.404       .  A
C3037      C3038   1.399       .  A
C3037      H3041   1.084       .  S
C3038      O3042   1.372       .  S
O3040      H3044   0.992       .  S
O3042      H3043   0.992       .  S
C3045      C3046   1.407       .  A
C3045      C3050   1.405       .  A
C3046      C3047   1.391       .  A
C3046      H3051   1.084       .  S
C3047      C3048   1.400       .  A
C3047      O3052   1.372       .  S
C3048      C3049   1.400       .  A
C3049      C3050   1.391       .  A
C3049      H3053   1.084       .  S
C3050      O3054   1.371       .  S
O3052      H3056   0.991       .  S
O3054      H3055   0.992       .  S
C3057      C3058   1.402       .  A
C3057      C3062   1.415       .  A
C3058      C3059   1.385       .  A
C3058      H3063   1.083       .  S
C3059      C3060   1.405       .  A
C3059      O3064   1.373       .  S
C3060      C3061   1.396       .  A
C3061      C3062   1.397       .  A
C3061      H3065   1.082       .  S
C3062      O3066   1.372       .  S
O3064      H3068   0.992       .  S
O3066      H3067   0.992       .  S
C3069      C3070   1.409       .  A
C3069      C3074   1.405   1_545  A
C3070      C3071   1.393   1_545  A
C3070      H3075   1.083       .  S
C3071      C3072   1.397       .  A
C3071      O3076   1.372       .  S
C3072      C3073   1.403       .  A
C3073      C3074   1.393       .  A
C3073      H3077   1.084       .  S
C3074      O3078   1.372       .  S
O3076      H3080   0.992       .  S
O3078      H3079   0.992   1_565  S
C3081      C3082   1.408       .  A
C3081      C3086   1.411       .  A
C3082      C3083   1.398       .  A
C3082      H3087   1.083       .  S
C3083      C3084   1.401       .  A
C3083      O3088   1.371       .  S
C3084      C3085   1.398       .  A
C3085      C3086   1.388       .  A
C3085      H3089   1.085       .  S
C3086      O3090   1.373       .  S
O3088      H3092   0.992       .  S
O3090      H3091   0.992       .  S
C3093      C3094   1.403       .  A
C3093      C3098   1.415       .  A
C3094      C3095   1.393       .  A
C3094      H3099   1.084       .  S
C3095      C3096   1.406       .  A
C3095      O3100   1.372       .  S
C3096      C3097   1.398       .  A
C3097      C3098   1.400       .  A
C3097      H3101   1.083       .  S
C3098      O3102   1.372       .  S
O3100      H3104   0.992       .  S
O3102      H3103   0.992       .  S
C3105      C3106   1.401       .  A
C3105      C3110   1.403       .  A
C3106      C3107   1.399       .  A
C3106      H3111   1.083       .  S
C3107      C3108   1.410       .  A
C3107      O3112   1.372       .  S
C3108      C3109   1.403       .  A
C3109      C3110   1.388       .  A
C3109      H3113   1.084       .  S
C3110      O3114   1.373       .  S
O3112      H3116   0.992       .  S
O3114      H3115   0.992       .  S
C3117      C3118   1.414       .  A
C3117      C3122   1.409       .  A
C3118      C3119   1.395       .  A
C3118      H3123   1.083       .  S
C3119      C3120   1.400       .  A
C3119      O3124   1.372       .  S
C3120      C3121   1.404       .  A
C3121      C3122   1.396       .  A
C3121      H3125   1.084       .  S
C3122      O3126   1.372       .  S
O3124      H3128   0.992       .  S
O3126      H3127   0.992       .  S
C3129      C3130   1.411       .  A
C3129      C3134   1.410       .  A
C3130      C3131   1.391       .  A
C3130      H3135   1.083       .  S
C3131      C3132   1.397       .  A
C3131      O3136   1.372       .  S
C3132      C3133   1.400       .  A
C3133      C3134   1.392       .  A
C3133      H3137   1.084       .  S
C3134      O3138   1.372       .  S
O3136      H3140   0.992       .  S
O3138      H3139   0.992       .  S
C3141      C3142   1.405       .  A
C3141      C3146   1.412       .  A
C3142      C3143   1.407       .  A
C3142      H3147   1.083       .  S
C3143      C3144   1.409       .  A
C3143      O3148   1.372       .  S
C3144      C3145   1.396       .  A
C3145      C3146   1.386       .  A
C3145      H3149   1.084       .  S
C3146      O3150   1.373       .  S
O3148      H3152   0.991       .  S
O3150      H3151   0.992       .  S
C3153      C3154   1.400       .  A
C3153      C3158   1.405       .  A
C3154      C3155   1.391       .  A
C3154      H3159   1.084       .  S
C3155      C3156   1.410       .  A
C3155      O3160   1.372       .  S
C3156      C3157   1.405       .  A
C3157      C3158   1.393       .  A
C3157      H3161   1.083       .  S
C3158      O3162   1.372       .  S
O3160      H3164   0.992       .  S
O3162      H3163   0.992       .  S
C3165      C3166   1.395       .  A
C3165      C3170   1.408       .  A
C3166      C3167   1.391       .  A
C3166      H3171   1.084       .  S
C3167      C3168   1.416       .  A
C3167      O3172   1.372       .  S
C3168      C3169   1.405       .  A
C3169      C3170   1.400       .  A
C3169      H3173   1.083       .  S
C3170      O3174   1.371       .  S
O3172      H3176   0.992       .  S
O3174      H3175   0.992       .  S
C3177      C3178   1.404       .  A
C3177      C3182   1.404       .  A
C3178      C3179   1.398       .  A
C3178      H3183   1.084       .  S
C3179      C3180   1.402       .  A
C3179      O3184   1.371       .  S
C3180      C3181   1.403       .  A
C3181      C3182   1.395       .  A
C3181      H3185   1.084       .  S
C3182      O3186   1.372       .  S
O3184      H3188   0.991       .  S
O3186      H3187   0.992       .  S
C3189      C3190   1.395       .  A
C3189      C3194   1.412       .  A
C3190      C3191   1.397       .  A
C3190      H3195   1.083       .  S
C3191      C3192   1.416       .  A
C3191      O3196   1.371       .  S
C3192      C3193   1.401       .  A
C3193      C3194   1.395       .  A
C3193      H3197   1.084       .  S
C3194      O3198   1.372       .  S
O3196      H3200   0.991       .  S
O3198      H3199   0.992       .  S
C3201      C3202   1.412   1_565  A
C3201      C3206   1.410       .  A
C3202      C3203   1.393       .  A
C3202      H3207   1.083       .  S
C3203      C3204   1.398   1_545  A
C3203      O3208   1.372       .  S
C3204      C3205   1.402       .  A
C3205      C3206   1.392       .  A
C3205      H3209   1.084       .  S
C3206      O3210   1.372       .  S
O3208      H3212   0.992       .  S
O3210      H3211   0.992       .  S
C3213      C3214   1.398       .  A
C3213      C3218   1.411       .  A
C3214      C3215   1.397       .  A
C3214      H3219   1.084       .  S
C3215      C3216   1.407       .  A
C3215      O3220   1.370       .  S
C3216      C3217   1.395       .  A
C3217      C3218   1.387       .  A
C3217      H3221   1.084       .  S
C3218      O3222   1.372       .  S
O3220      H3224   0.991       .  S
O3222      H3223   0.992   1_455  S
C3225      C3226   1.410   1_655  A
C3225      C3230   1.410       .  A
C3226      C3227   1.392   1_455  A
C3226      H3231   1.083       .  S
C3227      C3228   1.397       .  A
C3227      O3232   1.372   1_655  S
C3228      C3229   1.400       .  A
C3229      C3230   1.390       .  A
C3229      H3233   1.084       .  S
C3230      O3234   1.372       .  S
O3232      H3236   0.992   1_455  S
O3234      H3235   0.991       .  S
C3237      C3238   1.405       .  A
C3237      C3242   1.404       .  A
C3238      C3239   1.392       .  A
C3238      H3243   1.083       .  S
C3239      C3240   1.401       .  A
C3239      O3244   1.372       .  S
C3240      C3241   1.399       .  A
C3241      C3242   1.382       .  A
C3241      H3245   1.084       .  S
C3242      O3246   1.372       .  S
O3244      H3248   0.992       .  S
O3246      H3247   0.991       .  S
C3249      C3250   1.401       .  A
C3249      C3254   1.414       .  A
C3250      C3251   1.395       .  A
C3250      H3255   1.083       .  S
C3251      C3252   1.406       .  A
C3251      O3256   1.372       .  S
C3252      C3253   1.395       .  A
C3253      C3254   1.387       .  A
C3253      H3257   1.084       .  S
C3254      O3258   1.372       .  S
O3256      H3260   0.992       .  S
O3258      H3259   0.992       .  S
C3261      C3262   1.401       .  A
C3261      C3266   1.421       .  A
C3262      C3263   1.394       .  A
C3262      H3267   1.083       .  S
C3263      C3264   1.408       .  A
C3263      O3268   1.373       .  S
C3264      C3265   1.393       .  A
C3265      C3266   1.393       .  A
C3265      H3269   1.084       .  S
C3266      O3270   1.372       .  S
O3268      H3272   0.992       .  S
O3270      H3271   0.992       .  S
C3273      C3274   1.403       .  A
C3273      C3278   1.405       .  A
C3274      C3275   1.390       .  A
C3274      H3279   1.084       .  S
C3275      C3276   1.406       .  A
C3275      O3280   1.373       .  S
C3276      C3277   1.409       .  A
C3277      C3278   1.402       .  A
C3277      H3281   1.084       .  S
C3278      O3282   1.371       .  S
O3280      H3284   0.992       .  S
O3282      H3283   0.992       .  S
C3285      C3286   1.406       .  A
C3285      C3290   1.405       .  A
C3286      C3287   1.397       .  A
C3286      H3291   1.084   1_556  S
C3287      C3288   1.404       .  A
C3287      O3292   1.371       .  S
C3288      C3289   1.405       .  A
C3289      C3290   1.397       .  A
C3289      H3293   1.084       .  S
C3290      O3294   1.372       .  S
O3292      H3296   0.990   1_556  S
O3294      H3295   0.992       .  S
C3297      C3298   1.402       .  A
C3297      C3302   1.419       .  A
C3298      C3299   1.392       .  A
C3298      H3303   1.084       .  S
C3299      C3300   1.408       .  A
C3299      O3304   1.373       .  S
C3300      C3301   1.396       .  A
C3301      C3302   1.397       .  A
C3301      H3305   1.084       .  S
C3302      O3306   1.371   1_565  S
O3304      H3308   0.992       .  S
O3306      H3307   0.992       .  S
C3309      C3310   1.405       .  A
C3309      C3314   1.407       .  A
C3310      C3311   1.402       .  A
C3310      H3315   1.084       .  S
C3311      C3312   1.407       .  A
C3311      O3316   1.372       .  S
C3312      C3313   1.402       .  A
C3313      C3314   1.395       .  A
C3313      H3317   1.084       .  S
C3314      O3318   1.372       .  S
O3316      H3320   0.992       .  S
O3318      H3319   0.991       .  S
C3321      C3322   1.408       .  A
C3321      C3326   1.415       .  A
C3322      C3323   1.387       .  A
C3322      H3327   1.083       .  S
C3323      C3324   1.401       .  A
C3323      O3328   1.373       .  S
C3324      C3325   1.402       .  A
C3325      C3326   1.404       .  A
C3325      H3329   1.083       .  S
C3326      O3330   1.371       .  S
O3328      H3332   0.992       .  S
O3330      H3331   0.992       .  S
C3333      C3334   1.405       .  A
C3333      C3338   1.397       .  A
C3334      C3335   1.395       .  A
C3334      H3339   1.084       .  S
C3335      C3336   1.408       .  A
C3335      O3340   1.372       .  S
C3336      C3337   1.413       .  A
C3337      C3338   1.397       .  A
C3337      H3341   1.083       .  S
C3338      O3342   1.371       .  S
O3340      H3344   0.992       .  S
O3342      H3343   0.992       .  S
