geometry optimzed in LAMMPS
_audit_creation_date              2020-11-30 
_audit_creation_method            'lammps2cif' 
_symmetry_space_group_name_H-M    'P1' 
_symmetry_Int_Tables_number       1 
_symmetry_cell_setting            triclinic 
loop_ 
_symmetry_equiv_pos_as_xyz 
  x,y,z 
_cell_length_a                    52.96359859 
_cell_length_b                    52.843272739032976 
_cell_length_c                    53.06409847106974 
_cell_angle_alpha                 89.8892168878402 
_cell_angle_beta                  89.99563965933093 
_cell_angle_gamma                 89.1540124750597 
loop_ 
_atom_site_label 
_atom_site_type_symbol 
_atom_site_fract_x 
_atom_site_fract_y 
_atom_site_fract_z 
_atom_site_charge 
O1          O  0.21477576  0.71712801  0.73910474    -0.80500
O2          O  0.20689368  0.78893176  0.74759939    -0.80500
O3          O  0.24578808  0.73295441  0.80230321    -0.80500
O4          O  0.22671237  0.76339157  0.69660213    -0.80400
O5          O  0.21225964  0.75357405  0.78804638    -0.80600
O6          O  0.22815383  0.72241269  0.68838108    -0.80500
O7          O  0.23413885  0.80488807  0.72090514    -0.80500
O8          O  0.24413782  0.70029448  0.76439610    -0.80500
C9          C  0.22216743  0.69989715  0.75449196     1.09200
C10         C  0.21266144  0.80566907  0.73145475     1.09100
C11         C  0.22271922  0.73939617  0.80448780     1.09200
C12         C  0.22146819  0.74461813  0.68190451     1.09100
O13         O  0.27242071  0.74568857  0.69679062    -0.80500
O14         O  0.25895004  0.77758600  0.80078473    -0.80500
O15         O  0.29213451  0.71786891  0.74521499    -0.80500
O16         O  0.28386575  0.79421236  0.73811175    -0.80500
O17         O  0.25406512  0.81036436  0.76287784    -0.80500
O18         O  0.26218412  0.70326531  0.72128459    -0.80500
O19         O  0.27038088  0.78670447  0.68755268    -0.80400
O20         O  0.29088213  0.75508939  0.78483649    -0.80500
Co21       Co  0.24150077  0.73450810  0.71941692     1.51500
Co22       Co  0.23328020  0.78061888  0.77308204     1.51700
Co23       Co  0.26795308  0.72853910  0.77224811     1.51600
Co24       Co  0.25748823  0.77519324  0.71901619     1.51500
O25         O  0.25014895  0.75473738  0.74990928    -1.42400
C26         C  0.27798595  0.76443061  0.68203890     1.09100
C27         C  0.28191956  0.77001129  0.80156279     1.09200
C28         C  0.28414704  0.70101055  0.73027202     1.09200
C29         C  0.27553882  0.81199517  0.75230428     1.09100
O30         O  0.72460895  0.23723699  0.69057514    -0.80500
O31         O  0.76630942  0.22825305  0.79247463    -0.80500
O32         O  0.79116368  0.21513591  0.74246190    -0.80500
O33         O  0.70802633  0.24564755  0.77412091    -0.80400
O34         O  0.80895817  0.24243583  0.76584222    -0.80600
O35         O  0.69473236  0.24840369  0.73376045    -0.80500
O36         O  0.72644190  0.23675023  0.78906130    -0.80500
O37         O  0.75332356  0.21161263  0.70712613    -0.80500
C38         C  0.73804530  0.21686448  0.68952278     1.09200
C39         C  0.74392466  0.22421259  0.79980493     1.09100
C40         C  0.81083564  0.22250878  0.75352594     1.09200
C41         C  0.69130278  0.24178903  0.75667490     1.09100
O42         O  0.71758808  0.29823552  0.73505177    -0.80500
O43         O  0.78583911  0.28834841  0.75313861    -0.80500
O44         O  0.76968116  0.25634683  0.68346488    -0.80500
O45         O  0.73842455  0.27984289  0.80874427    -0.80500
O46         O  0.77852295  0.27600803  0.80125498    -0.80500
O47         O  0.74670158  0.28725755  0.69720430    -0.80500
O48         O  0.70711046  0.28743747  0.77196140    -0.80400
O49         O  0.80284057  0.26563111  0.72265348    -0.80500
Co50       Co  0.72225667  0.26686234  0.71574572     1.51500
Co51       Co  0.77521560  0.25690083  0.76876959     1.51700
Co52       Co  0.77722955  0.23818511  0.71606823     1.51600
Co53       Co  0.73936730  0.26789249  0.77356628     1.51500
O54         O  0.74903759  0.25257516  0.73994062    -1.42400
C55         C  0.70143127  0.29892205  0.75216240     1.09100
C56         C  0.80291951  0.28523966  0.73677241     1.09200
C57         C  0.75855688  0.27717523  0.67945720     1.09200
C58         C  0.76097079  0.28112888  0.81672218     1.09100
O59         O  0.70126609  0.72881153  0.22973858    -0.80500
O60         O  0.80578534  0.75706814  0.23960671    -0.80500
O61         O  0.72773802  0.78583785  0.23636000    -0.80500
O62         O  0.77861936  0.69928803  0.23163198    -0.80400
O63         O  0.76874496  0.79472391  0.24127233    -0.80600
O64         O  0.73855236  0.69055299  0.22998848    -0.80500
O65         O  0.79609670  0.71622108  0.23507004    -0.80500
O66         O  0.71036621  0.76883026  0.23255391    -0.80500
C67         C  0.69656031  0.75161722  0.22351908     1.09200
C68         C  0.80965696  0.73559002  0.22924396     1.09100
C69         C  0.74730661  0.79929329  0.23121769     1.09200
C70         C  0.76095618  0.68589155  0.22291411     1.09100
O71         O  0.74198286  0.69377309  0.28479759    -0.80500
O72         O  0.76257766  0.78377260  0.29510973    -0.80500
O73         O  0.68989211  0.76933043  0.27594840    -0.80500
O74         O  0.80958324  0.71587515  0.27553135    -0.80500
O75         O  0.79702586  0.74911472  0.29387974    -0.80500
O76         O  0.70392245  0.73126768  0.28446936    -0.80500
O77         O  0.77913640  0.67819525  0.27489794    -0.80400
O78         O  0.72878161  0.79727686  0.27808596    -0.80500
Co79       Co  0.72479991  0.71431196  0.25665417     1.51500
Co80       Co  0.78160858  0.76937480  0.26633131     1.51700
Co81       Co  0.72431549  0.76193158  0.26641503     1.51600
Co82       Co  0.77322061  0.71294618  0.26579713     1.51500
O83         O  0.75466334  0.74348937  0.25485111    -1.42400
C84         C  0.75701837  0.67448191  0.28305866     1.09100
C85         C  0.74717376  0.80161661  0.29201046     1.09200
C86         C  0.68511942  0.74675477  0.28208120     1.09200
C87         C  0.81495211  0.73427865  0.28908762     1.09100
C88         C  0.52785354  0.00200707  0.02154636     0.02000
C89         C  0.50857839  0.98386728  0.02074446     0.02000
C90         C  0.49044813  0.98511885  0.00124998     0.02000
C91         C  0.49189674  0.00380599  0.98224255     0.02000
C92         C  0.51081265  0.02225673  0.98348220     0.02000
C93         C  0.52868318  0.02144394  0.00323953     0.02000
C94         C  0.68485529  0.97265968  0.18658266     0.79900
N95         N  0.68912625  0.99327333  0.20137641    -0.78400
C96         C  0.67572204  0.01516088  0.19746698     0.82300
N97         N  0.65841124  0.01634637  0.17864419    -0.78400
C98         C  0.65441735  0.99619828  0.16345425     0.82400
N99         N  0.66767204  0.97443661  0.16765384    -0.80100
C100        C  0.68441166  0.18463380  0.97433745     0.79900
N101        N  0.66665414  0.16644165  0.97656071    -0.78400
C102        C  0.65424970  0.16269868  0.99857165     0.82300
N103        N  0.65949801  0.17759619  0.01855468    -0.78400
C104        C  0.67704698  0.19596291  0.01688960     0.82400
N105        N  0.68976366  0.19932273  0.99476647    -0.80100
C106        C  0.32721983  0.98043642  0.82197710     0.79900
N107        N  0.34699204  0.97970322  0.83836168    -0.78400
C108        C  0.35541485  0.00115774  0.84940068     0.82300
N109        N  0.34381647  0.02358099  0.84394733    -0.78400
C110        C  0.32377599  0.02476471  0.82799757     0.82400
N111        N  0.31547623  0.00310761  0.81686603    -0.80100
C112        C  0.52284554  0.19194050  0.82593158     0.79900
N113        N  0.52560271  0.17230416  0.84234532    -0.78400
C114        C  0.50627482  0.16528910  0.85741640     0.82300
N115        N  0.48396843  0.17808297  0.85594647    -0.78400
C116        C  0.48077784  0.19805241  0.84007509     0.82400
N117        N  0.50037105  0.20493604  0.82490444    -0.80100
C118        C  0.52214897  0.80839006  0.17210322     0.79900
N119        N  0.52290570  0.82799475  0.15552616    -0.78400
C120        C  0.50212682  0.84248096  0.15054718     0.82300
N121        N  0.48000120  0.83662986  0.16200372    -0.78400
C122        C  0.47871879  0.81717127  0.17876457     0.82400
N123        N  0.49998045  0.80319509  0.18411904    -0.80100
C124        C  0.33463880  0.82221872  0.97455969     0.79900
N125        N  0.32276106  0.81530711  0.99635193    -0.78400
C126        C  0.32671016  0.82862154  0.01804088     0.82300
N127        N  0.34263886  0.84846766  0.01764808    -0.78400
C128        C  0.35414172  0.85570380  0.99613411     0.82400
N129        N  0.35004354  0.84252165  0.97475125    -0.80100
C130        C  0.01473107  0.50600561  0.99683191     0.02000
C131        C  0.01387376  0.48855748  0.97664190     0.02000
C132        C  0.99523697  0.46975526  0.97647981     0.02000
C133        C  0.97771282  0.46813800  0.99641218     0.02000
C134        C  0.97793903  0.48615726  0.01600524     0.02000
C135        C  0.99637786  0.50524128  0.01623583     0.02000
C136        C  0.16573273  0.67529892  0.97282042     0.79900
N137        N  0.14841860  0.65661213  0.97313238    -0.78400
C138        C  0.14426472  0.64294988  0.99428413     0.82300
N139        N  0.15775066  0.64780122  0.01528702    -0.78400
C140        C  0.17573875  0.66577319  0.01533671     0.82400
N141        N  0.17956438  0.67972189  0.99405073    -0.80100
C142        C  0.16937971  0.52705333  0.81124297     0.79900
N143        N  0.18320706  0.50587376  0.80530508    -0.78400
C144        C  0.17706328  0.48297804  0.81528765     0.82300
N145        N  0.15731077  0.48140358  0.83152030    -0.78400
C146        C  0.14348437  0.50229038  0.83775226     0.82400
N147        N  0.14970639  0.52495827  0.82759351    -0.80100
C148        C  0.97759581  0.66597987  0.17956220     0.79900
N149        N  0.99933293  0.67089511  0.19227964    -0.78400
C150        C  0.02084661  0.65719094  0.18761971     0.82300
N151        N  0.02014859  0.63844407  0.17008793    -0.78400
C152        C  0.99858820  0.63320438  0.15739148     0.82400
N153        N  0.97742964  0.64725613  0.16205919    -0.80100
C154        C  0.82833652  0.46894523  0.19078181     0.79900
N155        N  0.84704103  0.46786771  0.17330194    -0.78400
C156        C  0.85219391  0.48819532  0.15864823     0.82300
N157        N  0.83852081  0.50987556  0.16173098    -0.78400
C158        C  0.81952477  0.51129579  0.17891155     0.82400
N159        N  0.81446122  0.49069671  0.19346376    -0.80100
C160        C  0.01425966  0.31241686  0.81189414     0.79900
N161        N  0.99412235  0.30937294  0.79613991    -0.78400
C162        C  0.97267256  0.32375071  0.79945196     0.82300
N163        N  0.97152816  0.34087099  0.81853034    -0.78400
C164        C  0.99130917  0.34370393  0.83441938     0.82400
N165        N  0.01246537  0.32952965  0.83082930    -0.80100
C166        C  0.83807286  0.29002937  0.03257029     0.79900
N167        N  0.82109283  0.28788677  0.01342138    -0.78400
C168        C  0.82331281  0.30243767  0.99239322     0.82300
N169        N  0.84258613  0.31893314  0.99065040    -0.78400
C170        C  0.85956562  0.32127451  0.00953436     0.82400
N171        N  0.85715539  0.30688031  0.03062159    -0.80100
C172        C  0.50598502  0.47826253  0.51600997     0.02000
C173        C  0.52272520  0.47725389  0.49533618     0.02000
C174        C  0.52073634  0.49548407  0.47587954     0.02000
C175        C  0.50205826  0.51490821  0.47737657     0.02000
C176        C  0.48474444  0.51538855  0.49769234     0.02000
C177        C  0.48668302  0.49695352  0.51689084     0.02000
C178        C  0.48178131  0.32593803  0.68499346     0.79900
N179        N  0.48278429  0.34387933  0.66667017    -0.78400
C180        C  0.50411713  0.35710889  0.66259391     0.82300
N181        N  0.52472321  0.35224209  0.67702957    -0.78400
C182        C  0.52420340  0.33458963  0.69569698     0.82400
N183        N  0.50255364  0.32143197  0.69969663    -0.80100
C184        C  0.31535447  0.67319909  0.47646325     0.79900
N185        N  0.31167740  0.68868442  0.49663529    -0.78400
C186        C  0.32588202  0.68586199  0.51785659     0.82300
N187        N  0.34415580  0.66748216  0.51855416    -0.78400
C188        C  0.34807130  0.65179071  0.49857535     0.82400
N189        N  0.33352617  0.65477734  0.47758317    -0.80100
C190        C  0.66331355  0.46570261  0.29513763     0.79900
N191        N  0.64528199  0.46479134  0.31337247    -0.78400
C192        C  0.64183724  0.48454575  0.32942091     0.82300
N193        N  0.65649960  0.50524652  0.32709935    -0.78400
C194        C  0.67475889  0.50631381  0.30921787     0.82400
N195        N  0.67810409  0.48646787  0.29323233    -0.80100
C196        C  0.47308108  0.65901558  0.30446957     0.79900
N197        N  0.49279035  0.67400893  0.29793554    -0.78400
C198        C  0.51384391  0.67457756  0.31269238     0.82300
N199        N  0.51508087  0.66009686  0.33382843    -0.78400
C200        C  0.49541742  0.64549645  0.34062119     0.82400
N201        N  0.47451624  0.64514632  0.32595834    -0.80100
C202        C  0.32521392  0.47964226  0.68053087     0.79900
N203        N  0.32018616  0.50262432  0.69141817    -0.78400
C204        C  0.33415957  0.52323766  0.68508562     0.82300
N205        N  0.35265860  0.52049274  0.66760597    -0.78400
C206        C  0.35787826  0.49795850  0.65661930     0.82400
N207        N  0.34416426  0.47749036  0.66327744    -0.80100
C208        C  0.67255942  0.30196008  0.46916740     0.79900
N209        N  0.68719437  0.29688515  0.48970257    -0.78400
C210        C  0.68611409  0.31254846  0.51001282     0.82300
N211        N  0.67004403  0.33278920  0.50987288    -0.78400
C212        C  0.65495170  0.33771460  0.48972661     0.82400
N213        N  0.65665872  0.32236189  0.46930165    -0.80100
C214        C  0.99847953  0.98657312  0.47719924     0.02000
C215        C  0.01848107  0.98720969  0.49478039     0.02000
C216        C  0.01865452  0.00611672  0.51360405     0.02000
C217        C  0.99917900  0.02473987  0.51458716     0.02000
C218        C  0.97892291  0.02389235  0.49724138     0.02000
C219        C  0.97855849  0.00469909  0.47862473     0.02000
C220        C  0.98299054  0.17564507  0.68817038     0.79900
N221        N  0.00427208  0.18913421  0.69253175    -0.78400
C222        C  0.02532267  0.18526561  0.67814898     0.82300
N223        N  0.02475422  0.16787027  0.65923974    -0.78400
C224        C  0.00344982  0.15457702  0.65454930     0.82400
N225        N  0.98282451  0.15853880  0.66919280    -0.80100
C226        C  0.17968551  0.02427512  0.67587994     0.79900
N227        N  0.16284754  0.02381408  0.65657129    -0.78400
C228        C  0.14934988  0.00286299  0.65146730     0.82300
N229        N  0.15241435  0.98227980  0.66634138    -0.78400
C230        C  0.16904912  0.98204260  0.68573997     0.82400
N231        N  0.18284126  0.00314549  0.69054286    -0.80100
C232        C  0.17571747  0.81661709  0.51300593     0.79900
N233        N  0.15898469  0.83639383  0.51307539    -0.78400
C234        C  0.15578857  0.85133883  0.49237458     0.82300
N235        N  0.16968950  0.84615845  0.47142388    -0.78400
C236        C  0.18644113  0.82641902  0.47093460     0.82400
N237        N  0.18951392  0.81183378  0.49189397    -0.80100
C238        C  0.79588023  0.16546339  0.51816765     0.79900
N239        N  0.81595987  0.14915774  0.51767446    -0.78400
C240        C  0.83083767  0.14673230  0.49700386     0.82300
N241        N  0.82575916  0.16127433  0.47645419    -0.78400
C242        C  0.80621291  0.17824228  0.47665070     0.82400
N243        N  0.79125495  0.18030951  0.49751599    -0.80100
C244        C  0.80681853  0.97634117  0.32804885     0.79900
N245        N  0.80480968  0.99625321  0.31176313    -0.78400
C246        C  0.82020497  0.01654925  0.31422362     0.82300
N247        N  0.83735080  0.01696634  0.33325575    -0.78400
C248        C  0.83944939  0.99728245  0.34960025     0.82400
N249        N  0.82415356  0.97716320  0.34686658    -0.80100
C250        C  0.97961402  0.82353671  0.31482623     0.79900
N251        N  0.97785257  0.84147352  0.33316363    -0.78400
C252        C  0.99844988  0.85479558  0.34008431     0.82300
N253        N  0.02073791  0.85055214  0.32814692    -0.78400
C254        C  0.02289925  0.83295271  0.30963955     0.82400
N255        N  0.00228497  0.81911416  0.30328028    -0.80100
O256        O  0.25494255  0.21023602  0.72162196    -0.80500
O257        O  0.23060758  0.31141275  0.75036463    -0.80500
O258        O  0.20443209  0.23654697  0.74035269    -0.80500
O259        O  0.30652967  0.27484375  0.75128872    -0.80400
O260        O  0.19458857  0.27510057  0.74897588    -0.80600
O261        O  0.29392830  0.24864666  0.72162134    -0.80500
O262        O  0.26787745  0.29951617  0.73933759    -0.80500
O263        O  0.22905135  0.19808335  0.75167262    -0.80500
C264        C  0.23827608  0.19504927  0.72981925     1.09200
C265        C  0.25015924  0.31525440  0.73762707     1.09100
C266        C  0.18998969  0.25515504  0.73710227     1.09200
C267        C  0.30952168  0.26498793  0.72967623     1.09100
O268        O  0.30585367  0.23292626  0.77177003    -0.80500
O269        O  0.21031223  0.25586001  0.79808356    -0.80500
O270        O  0.24659850  0.21771135  0.79924950    -0.80500
O271        O  0.28499779  0.30884523  0.78633574    -0.80500
O272        O  0.24869542  0.29396233  0.79873229    -0.80500
O273        O  0.27055379  0.19768669  0.77191242    -0.80500
O274        O  0.28654960  0.25791428  0.79875163    -0.80400
O275        O  0.19567372  0.21901929  0.78718729    -0.80500
Co276      Co  0.27888772  0.22486329  0.74685324     1.51500
Co277      Co  0.22371727  0.28123056  0.77236022     1.51700
Co278      Co  0.22567679  0.23035780  0.77039926     1.51600
Co279      Co  0.27409055  0.27863321  0.76973678     1.51500
O280        O  0.25168857  0.25261914  0.75649338    -1.42400
C281        C  0.30478803  0.24307247  0.79335434     1.09100
C282        C  0.19130626  0.24098605  0.79618257     1.09200
C283        C  0.26058699  0.19889129  0.79360312     1.09200
C284        C  0.26365274  0.31295368  0.79667240     1.09100
O285        O  0.78970373  0.20463168  0.25410248    -0.80500
O286        O  0.78788186  0.28081857  0.25179597    -0.80500
O287        O  0.76520858  0.22024043  0.19650666    -0.80500
O288        O  0.75452706  0.26511643  0.30508227    -0.80400
O289        O  0.79292943  0.24246335  0.21681132    -0.80600
O290        O  0.78618713  0.24338243  0.28971866    -0.80500
O291        O  0.75567174  0.29982620  0.26898897    -0.80500
O292        O  0.76112293  0.18623962  0.23138446    -0.80500
C293        C  0.78267885  0.18555419  0.24178481     1.09200
C294        C  0.77838745  0.30051924  0.26145102     1.09100
C295        C  0.78747252  0.22879746  0.19822177     1.09200
C296        C  0.77662372  0.25568349  0.30780913     1.09100
O297        O  0.73758756  0.22326692  0.30477561    -0.80500
O298        O  0.74694608  0.26155638  0.19215231    -0.80500
O299        O  0.71180915  0.20568556  0.24690080    -0.80500
O300        O  0.71057895  0.27952487  0.24565706    -0.80500
O301        O  0.74166590  0.29755526  0.22599536    -0.80500
O302        O  0.74017008  0.18766090  0.27102153    -0.80500
O303        O  0.70858216  0.24368668  0.28368089    -0.80400
O304        O  0.71541484  0.24188503  0.20906279    -0.80500
Co305      Co  0.76342268  0.21708467  0.27746664     1.51500
Co306      Co  0.76699675  0.26837020  0.22403916     1.51700
Co307      Co  0.73825875  0.21598556  0.22318444     1.51600
Co308      Co  0.73289720  0.26964471  0.27369821     1.51500
O309        O  0.75044062  0.24279573  0.24964011    -1.42400
C310        C  0.71509873  0.23172156  0.30323472     1.09100
C311        C  0.72495970  0.25250276  0.19012649     1.09200
C312        C  0.71877794  0.18699003  0.26017703     1.09200
C313        C  0.71874224  0.29800905  0.23313767     1.09100
O314        O  0.28259870  0.69835962  0.24472988    -0.80500
O315        O  0.21022779  0.70911143  0.25270586    -0.80500
O316        O  0.25736359  0.72060049  0.29453422    -0.80500
O317        O  0.22730075  0.73675979  0.18898440    -0.80400
O318        O  0.21654849  0.72367452  0.30315845    -0.80600
O319        O  0.24797553  0.70322562  0.20370622    -0.80500
O320        O  0.19453224  0.73855970  0.22697428    -0.80500
O321        O  0.29860902  0.72676721  0.26985703    -0.80500
C322        C  0.29870621  0.70444074  0.26129336     1.09200
C323        C  0.19315021  0.71678398  0.23735045     1.09100
C324        C  0.23848425  0.71580364  0.30921459     1.09200
C325        C  0.23399926  0.71366840  0.18708148     1.09100
O326        O  0.27277207  0.74875862  0.18949528    -0.80500
O327        O  0.24094681  0.76701772  0.29287039    -0.80500
O328        O  0.28832670  0.77618212  0.25094970    -0.80500
O329        O  0.21433140  0.78650005  0.24387460    -0.80500
O330        O  0.19829995  0.75823067  0.26918456    -0.80500
O331        O  0.30503827  0.74535703  0.22787459    -0.80500
O332        O  0.25109351  0.78195064  0.20413376    -0.80400
O333        O  0.28197805  0.76410141  0.30149536    -0.80500
Co334      Co  0.27507508  0.72428089  0.21826104     1.51500
Co335      Co  0.22861225  0.73581679  0.27146020     1.51700
Co336      Co  0.26949126  0.75053088  0.27097617     1.51600
Co337      Co  0.22374466  0.76060454  0.21785082     1.51500
O338        O  0.24911225  0.74248751  0.24059812    -1.42400
C339        C  0.26607194  0.77193572  0.18807471     1.09100
C340        C  0.26013043  0.77278972  0.30677929     1.09200
C341        C  0.30638988  0.76736878  0.23752968     1.09200
C342        C  0.19752837  0.78022534  0.25973444     1.09100
C343        C  0.04806855  0.82862586  0.29764899    -0.20200
C344        C  0.05627234  0.80442217  0.28968698     0.36000
C345        C  0.08130203  0.80067872  0.28151877    -0.26200
C346        C  0.09860985  0.82055675  0.28149874     0.02500
C347        C  0.09030872  0.84502502  0.28834212     0.27300
C348        C  0.06511430  0.84884347  0.29622642    -0.25300
N349        N  0.03978396  0.78324613  0.29124516    -0.82700
H350        H  0.08764196  0.78180210  0.27632305     0.13100
C351        C  0.12579170  0.81459017  0.27703439     0.02400
N352        N  0.10763734  0.86570241  0.28790727    -0.81300
H353        H  0.05897182  0.86759543  0.30202285     0.17900
C354        C  0.13707806  0.81983736  0.25366355    -0.26100
C355        C  0.16163262  0.81087971  0.24803306     0.35900
C356        C  0.17530661  0.79654363  0.26622165    -0.20100
C357        C  0.16455176  0.79325233  0.29022135    -0.25400
C358        C  0.14016649  0.80200575  0.29573936     0.27300
H359        H  0.12629781  0.82981005  0.23930178     0.13100
N360        N  0.17144827  0.81525854  0.22329060    -0.82700
H361        H  0.17471059  0.78250930  0.30450719     0.17900
N362        N  0.13018154  0.79730327  0.32038217    -0.81300
H363        H  0.17507402  0.79778491  0.21471770     0.33500
H364        H  0.18843747  0.82492312  0.22502631     0.38000
H365        H  0.12467372  0.81463280  0.32829571     0.33500
H366        H  0.11426471  0.78599295  0.31872466     0.30200
H367        H  0.09852449  0.88251902  0.29332157     0.33500
H368        H  0.12156762  0.86199152  0.30143059     0.30200
H369        H  0.03834130  0.77531813  0.27327610     0.38100
H370        H  0.04811095  0.76972926  0.30315723     0.33500
C371        C  0.79594116  0.16066687  0.24457218    -0.20200
C372        C  0.78876324  0.13951876  0.22999110     0.36000
C373        C  0.79544035  0.11495233  0.23811032    -0.26200
C374        C  0.80929584  0.11104047  0.26032433     0.02500
C375        C  0.81845918  0.13215042  0.27358268     0.27300
C376        C  0.81192746  0.15673550  0.26540467    -0.25300
N377        N  0.77378707  0.14298795  0.20761229    -0.82700
H378        H  0.78893583  0.09870362  0.22765727     0.13100
C379        C  0.81207441  0.08501869  0.27085249     0.02400
N380        N  0.83312004  0.12854338  0.29614973    -0.81300
H381        H  0.81765199  0.17275856  0.27663821     0.17900
C382        C  0.83619584  0.07471208  0.27548010    -0.26100
C383        C  0.83920166  0.05175938  0.28864237     0.35900
C384        C  0.81776997  0.03867366  0.29717367    -0.20100
C385        C  0.79367383  0.04820305  0.29119658    -0.25400
C386        C  0.79067010  0.07136152  0.27844631     0.27300
H387        H  0.85277148  0.08490463  0.26950855     0.13100
N388        N  0.86405887  0.04181958  0.29338208    -0.82700
H389        H  0.77706140  0.03839191  0.29770007     0.17900
N390        N  0.76582660  0.08164853  0.27454325    -0.81300
H391        H  0.87311230  0.03926247  0.27604372     0.33500
H392        H  0.87403096  0.05532720  0.30356820     0.38000
H393        H  0.75545113  0.06823987  0.26467272     0.33500
H394        H  0.75732491  0.08404869  0.29217522     0.30200
H395        H  0.83844172  0.14596170  0.30363421     0.33500
H396        H  0.82152175  0.12006286  0.30958306     0.30200
H397        H  0.78456393  0.15322820  0.19472779     0.38100
H398        H  0.77008756  0.12558341  0.19916302     0.33500
C399        C  0.80127921  0.19367174  0.45380124    -0.20200
C400        C  0.80494638  0.22007433  0.45340012     0.36000
C401        C  0.80336239  0.23331773  0.43027799    -0.26200
C402        C  0.79769649  0.22071113  0.40770725     0.02500
C403        C  0.79283543  0.19441127  0.40859914     0.27300
C404        C  0.79508667  0.18122735  0.43140741    -0.25300
N405        N  0.81124624  0.23311849  0.47623301    -0.82700
H406        H  0.80680811  0.25347010  0.42978720     0.13100
C407        C  0.79625024  0.23498980  0.38340975     0.02400
N408        N  0.78498444  0.18065135  0.38677297    -0.81300
H409        H  0.79205211  0.16098207  0.43164395     0.17900
C410        C  0.81254174  0.22818971  0.36359910    -0.26100
C411        C  0.80846685  0.23715688  0.33889611     0.35900
C412        C  0.78732833  0.25308545  0.33380733    -0.20100
C413        C  0.77315618  0.26249158  0.35435793    -0.25400
C414        C  0.77760138  0.25384899  0.37913654     0.27300
H415        H  0.82787508  0.21488213  0.36724896     0.13100
N416        N  0.82494531  0.22903864  0.31886049    -0.82700
H417        H  0.75751076  0.27549060  0.35096030     0.17900
N418        N  0.76301508  0.26387317  0.39980410    -0.81300
H419        H  0.83918745  0.21696679  0.32572269     0.33500
H420        H  0.83390433  0.24510457  0.31189444     0.38000
H421        H  0.74972602  0.27724735  0.39336346     0.33500
H422        H  0.75290644  0.24922993  0.40797814     0.30200
H423        H  0.79940505  0.18078388  0.37335862     0.33500
H424        H  0.76898050  0.18960411  0.37919717     0.30200
H425        H  0.79566201  0.23208861  0.48826712     0.38100
H426        H  0.81399084  0.25233735  0.47261006     0.33500
C427        C  0.20095579  0.82088615  0.44755492    -0.20200
C428        C  0.20763848  0.79585987  0.44053460     0.36000
C429        C  0.22078617  0.79162032  0.41788266    -0.26200
C430        C  0.22733613  0.81173875  0.40198090     0.02500
C431        C  0.22094655  0.83672301  0.40905058     0.27300
C432        C  0.20767399  0.84102397  0.43164842    -0.25300
N433        N  0.20032944  0.77475617  0.45590266    -0.82700
H434        H  0.22522465  0.77239617  0.41213948     0.13100
C435        C  0.23904777  0.80593645  0.37714661     0.02400
N436        N  0.22797434  0.85758564  0.39323760    -0.81300
H437        H  0.20270199  0.86024851  0.43696190     0.17900
C438        C  0.22655461  0.81355653  0.35503043    -0.26100
C439        C  0.23472986  0.80494503  0.33131482     0.35900
C440        C  0.25557593  0.78800306  0.32975094    -0.20100
C441        C  0.26926939  0.78206940  0.35167663    -0.25400
C442        C  0.26114025  0.79089366  0.37530347     0.27300
H443        H  0.20965061  0.82527966  0.35636105     0.13100
N444        N  0.22145161  0.81265675  0.30889447    -0.82700
H445        H  0.28534002  0.76916554  0.35075270     0.17900
N446        N  0.27493938  0.78397925  0.39752358    -0.81300
H447        H  0.20651715  0.82503521  0.31330977     0.33500
H448        H  0.23400510  0.82284324  0.29772244     0.38000
H449        H  0.29345734  0.79023561  0.39543894     0.33500
H450        H  0.27549815  0.76425728  0.39864282     0.30200
H451        H  0.22182232  0.87474388  0.40106581     0.33500
H452        H  0.24769496  0.85805938  0.39278191     0.30200
H453        H  0.18061358  0.77400997  0.45562557     0.38100
H454        H  0.20695322  0.75772017  0.44817530     0.33500
C455        C  0.19359085  0.04812291  0.68101793    -0.20200
C456        C  0.19608895  0.06707405  0.66224072     0.36000
C457        C  0.20597526  0.09072321  0.66845973    -0.26200
C458        C  0.21386437  0.09595888  0.69298474     0.02500
C459        C  0.21302297  0.07676833  0.71148412     0.27300
C460        C  0.20293338  0.05299333  0.70532961    -0.25300
N461        N  0.18845205  0.06257396  0.63675920    -0.82700
H462        H  0.20669885  0.10540377  0.65419241     0.13100
C463        C  0.21997279  0.12239118  0.69974195     0.02400
N464        N  0.22168711  0.08184588  0.73661748    -0.81300
H465        H  0.20143786  0.03864690  0.71983878     0.17900
C466        C  0.20176239  0.13665055  0.71273460    -0.26100
C467        C  0.20671993  0.16131947  0.72067892     0.35900
C468        C  0.23055787  0.17211539  0.71584931    -0.20100
C469        C  0.24831302  0.15833210  0.70151350    -0.25400
C470        C  0.24320601  0.13359591  0.69341847     0.27300
H471        H  0.18365818  0.12839725  0.71711608     0.13100
N472        N  0.18761412  0.17515171  0.73423541    -0.82700
H473        H  0.26673254  0.16619105  0.69783448     0.17900
N474        N  0.26222170  0.11990980  0.67968125    -0.81300
H475        H  0.17146358  0.17627753  0.72295336     0.33500
H476        H  0.18307143  0.16485646  0.75041790     0.38000
H477        H  0.25469744  0.11478409  0.66224827     0.33500
H478        H  0.26671178  0.10337271  0.68966958     0.30200
H479        H  0.21969199  0.06586783  0.74805508     0.33500
H480        H  0.24103331  0.08539330  0.73558527     0.30200
H481        H  0.17465318  0.07608656  0.63192747     0.38100
H482        H  0.20407522  0.06521310  0.62505208     0.33500
C483        C  0.16670665  0.25187912  0.72140274    -0.20200
C484        C  0.14409220  0.26606973  0.72544998     0.36000
C485        C  0.12115337  0.25755901  0.71547135    -0.26200
C486        C  0.11994740  0.23516724  0.70130484     0.02500
C487        C  0.14267168  0.22229672  0.69518838     0.27300
C488        C  0.16570215  0.23085870  0.70513234    -0.25300
N489        N  0.14344610  0.28852543  0.74047727    -0.82700
H490        H  0.10389084  0.26795581  0.71975108     0.13100
C491        C  0.09480880  0.22419849  0.69498807     0.02400
N492        N  0.14218180  0.19984960  0.67992880    -0.81300
H493        H  0.18283559  0.22008372  0.70130554     0.17900
C494        C  0.08830108  0.21904335  0.66986250    -0.26100
C495        C  0.06550555  0.20688282  0.66380198     0.35900
C496        C  0.04882640  0.19961351  0.68330572    -0.20100
C497        C  0.05505685  0.20551065  0.70830222    -0.25400
C498        C  0.07784813  0.21741283  0.71425158     0.27300
H499        H  0.10115207  0.22438123  0.65495055     0.13100
N500        N  0.05918606  0.20208230  0.63792195    -0.82700
H501        H  0.04259406  0.20001736  0.72349512     0.17900
N502        N  0.08424060  0.22153690  0.74009324    -0.81300
H503        H  0.07344596  0.20845321  0.62594293     0.33500
H504        H  0.04299056  0.21278782  0.63365996     0.38000
H505        H  0.06986968  0.23258192  0.74819213     0.33500
H506        H  0.08452945  0.20396679  0.74917924     0.30200
H507        H  0.16047706  0.19272496  0.67700469     0.33500
H508        H  0.13249054  0.18601292  0.68998499     0.30200
H509        H  0.15598199  0.30151141  0.73272179     0.38100
H510        H  0.14924320  0.28392994  0.75870438     0.33500
C511        C  0.99822590  0.96668269  0.45736286    -0.20200
C512        C  0.01393672  0.96821027  0.43597894     0.36000
C513        C  0.01258449  0.94939743  0.41735008    -0.26200
C514        C  0.99617415  0.92897267  0.41997436     0.02500
C515        C  0.98139882  0.92677056  0.44194436     0.27300
C516        C  0.98235205  0.94587253  0.46029272    -0.25300
N517        N  0.03156190  0.98849525  0.43356844    -0.82700
H518        H  0.02445524  0.95053057  0.40076331     0.13100
C519        C  0.99564330  0.90947814  0.40000298     0.02400
N520        N  0.96635799  0.90469923  0.44601709    -0.81300
H521        H  0.97094381  0.94440101  0.47715650     0.17900
C522        C  0.01489513  0.89104673  0.39935223    -0.26100
C523        C  0.01586776  0.87295626  0.38007088     0.35900
C524        C  0.99712737  0.87303258  0.36118581    -0.20100
C525        C  0.97754984  0.89121557  0.36208545    -0.25400
C526        C  0.97688594  0.90981666  0.38109469     0.27300
H527        H  0.02939618  0.89087390  0.41377189     0.13100
N528        N  0.03574699  0.85427401  0.37991821    -0.82700
H529        H  0.96331914  0.89146075  0.34741177     0.17900
N530        N  0.95810098  0.92975435  0.38051897    -0.81300
H531        H  0.03505025  0.84425763  0.39690907     0.33500
H532        H  0.05297529  0.86365713  0.37917143     0.38000
H533        H  0.94622913  0.92769834  0.36494656     0.33500
H534        H  0.94669385  0.92804163  0.39646207     0.30200
H535        H  0.95733878  0.90568588  0.46352256     0.33500
H536        H  0.95207755  0.90455061  0.43246710     0.30200
H537        H  0.02128675  0.00547418  0.43229817     0.38100
H538        H  0.04188630  0.98672438  0.41688114     0.33500
C539        C  0.85846539  0.99762131  0.37001930    -0.20200
C540        C  0.87163145  0.97537021  0.37751629     0.36000
C541        C  0.88993115  0.97672397  0.39661229    -0.26200
C542        C  0.89534004  0.99978280  0.40829099     0.02500
C543        C  0.88179898  0.02186889  0.40128661     0.27300
C544        C  0.86367156  0.02061641  0.38202561    -0.25300
N545        N  0.86698627  0.95166546  0.36520997    -0.82700
H546        H  0.90058761  0.95987426  0.40191924     0.13100
C547        C  0.91629298  0.00086564  0.42672919     0.02400
N548        N  0.88658125  0.04544090  0.41379112    -0.81300
H549        H  0.85338169  0.03761965  0.37651591     0.17900
C550        C  0.93689602  0.01634321  0.42141806    -0.26100
C551        C  0.95728239  0.01782150  0.43810024     0.35900
C552        C  0.95721481  0.00356044  0.46048782    -0.20100
C553        C  0.93667101  0.98797444  0.46584331    -0.25400
C554        C  0.91613939  0.98646458  0.44914264     0.27300
H555        H  0.93722208  0.02723756  0.40409519     0.13100
N556        N  0.97803197  0.03378766  0.43216360    -0.82700
H557        H  0.93664599  0.97711558  0.48318043     0.17900
N558        N  0.89509749  0.97059068  0.45489559    -0.81300
H559        H  0.97090649  0.05219822  0.42977955     0.33500
H560        H  0.98544784  0.02794138  0.41483722     0.38000
H561        H  0.89801138  0.96118712  0.47201915     0.33500
H562        H  0.87923904  0.98236648  0.45731670     0.30200
H563        H  0.87504401  0.05989434  0.40645462     0.33500
H564        H  0.88150785  0.04331937  0.43271475     0.30200
H565        H  0.87270360  0.95344246  0.34644146     0.38100
H566        H  0.87811473  0.93718282  0.37310121     0.33500
C567        C  0.95770077  0.04274672  0.49882984    -0.20200
C568        C  0.96075078  0.06819216  0.49137236     0.36000
C569        C  0.93987098  0.08495915  0.49206266    -0.26200
C570        C  0.91618309  0.07683302  0.50029088     0.02500
C571        C  0.91337172  0.05158378  0.50838503     0.27300
C572        C  0.93409302  0.03485693  0.50765125    -0.25300
N573        N  0.98504406  0.07699540  0.48348998    -0.82700
H574        H  0.94200506  0.10443652  0.48610500     0.13100
C575        C  0.89445761  0.09481348  0.49968943     0.02400
N576        N  0.88958380  0.04241169  0.51705533    -0.81300
H577        H  0.93174787  0.01548514  0.51384478     0.17900
C578        C  0.88165614  0.09891514  0.47690146    -0.26100
C579        C  0.86074227  0.11561580  0.47548807     0.35900
C580        C  0.85267401  0.12869907  0.49736109    -0.20100
C581        C  0.86556574  0.12438449  0.52020319    -0.25400
C582        C  0.88651234  0.10774771  0.52152327     0.27300
H583        H  0.88786395  0.08876785  0.46022978     0.13100
N584        N  0.84739525  0.11885101  0.45208648    -0.82700
H585        H  0.85952669  0.13435151  0.53703328     0.17900
N586        N  0.89972316  0.10385002  0.54491359    -0.81300
H587        H  0.85584158  0.10796511  0.43787594     0.33500
H588        H  0.82922281  0.11180170  0.45460364     0.38000
H589        H  0.91805410  0.11057221  0.54261502     0.33500
H590        H  0.89139533  0.11463017  0.55926285     0.30200
H591        H  0.88389484  0.05320757  0.53258857     0.33500
H592        H  0.87629844  0.04504337  0.50268257     0.30200
H593        H  0.99037045  0.06715833  0.46727623     0.38100
H594        H  0.98407131  0.09616732  0.47862751     0.33500
C595        C  0.99966247  0.04466653  0.53443393    -0.20200
C596        C  0.01681960  0.06498984  0.53367008     0.36000
C597        C  0.01682220  0.08262354  0.55334067    -0.26200
C598        C  0.00045641  0.08041581  0.57399762     0.02500
C599        C  0.98323878  0.06026936  0.57469468     0.27300
C600        C  0.98287375  0.04277462  0.55477691    -0.25300
N601        N  0.03392557  0.06886753  0.51301370    -0.82700
H602        H  0.02970305  0.09834520  0.55241382     0.13100
C603        C  0.00148105  0.09947802  0.59460130     0.02400
N604        N  0.96649295  0.05743584  0.59580127    -0.81300
H605        H  0.96976777  0.02722560  0.55531066     0.17900
C606        C  0.97948640  0.11294739  0.60127285    -0.26100
C607        C  0.97966793  0.13117328  0.62053355     0.35900
C608        C  0.00246429  0.13610060  0.63349566    -0.20100
C609        C  0.02455476  0.12292060  0.62646792    -0.25400
C610        C  0.02425688  0.10453894  0.60733364     0.27300
H611        H  0.96212682  0.10943232  0.59113887     0.13100
N612        N  0.95686414  0.14497844  0.62657674    -0.82700
H613        H  0.04202791  0.12653337  0.63635737     0.17900
N614        N  0.04692773  0.09070143  0.60103658    -0.81300
H615        H  0.94180805  0.13883834  0.61553066     0.33500
H616        H  0.95970112  0.16394638  0.62185511     0.38000
H617        H  0.06201483  0.09676933  0.61205527     0.33500
H618        H  0.04401137  0.07170223  0.60562617     0.30200
H619        H  0.95497688  0.04172565  0.59334046     0.33500
H620        H  0.97759357  0.05373831  0.61171326     0.30200
H621        H  0.03207816  0.05512162  0.49907560     0.38100
H622        H  0.05232081  0.06733748  0.52003220     0.33500
C623        C  0.03861880  0.00553540  0.53323818    -0.20200
C624        C  0.03373173  0.99558342  0.55731942     0.36000
C625        C  0.05292798  0.99502654  0.57548002    -0.26200
C626        C  0.07703520  0.00406021  0.56981655     0.02500
C627        C  0.08212618  0.01334590  0.54550635     0.27300
C628        C  0.06277990  0.01438396  0.52753050    -0.25300
N629        N  0.00932939  0.98592943  0.56329407    -0.82700
H630        H  0.04897748  0.98765708  0.59412074     0.13100
C631        C  0.09655067  0.00378536  0.58968527     0.02400
N632        N  0.10702591  0.02122336  0.53891156    -0.81300
H633        H  0.06668931  0.02197735  0.50900027     0.17900
C634        C  0.10473664  0.98060861  0.59979837    -0.26100
C635        C  0.12243715  0.97961872  0.61950959     0.35900
C636        C  0.13160855  0.00251320  0.62977820    -0.20100
C637        C  0.12356955  0.02565507  0.61915303    -0.25400
C638        C  0.10621047  0.02642909  0.59926899     0.27300
H639        H  0.09737633  0.96321711  0.59210882     0.13100
N640        N  0.13120510  0.95546368  0.62880617    -0.82700
H641        H  0.13035279  0.04338337  0.62659438     0.17900
N642        N  0.09784148  0.05031963  0.58934437    -0.81300
H643        H  0.12212709  0.94069269  0.61956668     0.33500
H644        H  0.15036427  0.95371515  0.62426876     0.38000
H645        H  0.09035616  0.06087716  0.60426001     0.33500
H646        H  0.11364520  0.05981595  0.58257500     0.30200
H647        H  0.11320476  0.01022248  0.52368898     0.33500
H648        H  0.10588801  0.04006035  0.53290259     0.30200
H649        H  0.01158704  0.96696716  0.56859119     0.38100
H650        H  0.00235489  0.99588483  0.57887890     0.33500
C651        C  0.03890388  0.96748890  0.49415188    -0.20200
C652        C  0.03517694  0.94332141  0.50448712     0.36000
C653        C  0.05500990  0.92540893  0.50439411    -0.26200
C654        C  0.07892074  0.93145731  0.49479299     0.02500
C655        C  0.08277067  0.95591014  0.48477183     0.27300
C656        C  0.06252586  0.97341822  0.48398474    -0.25300
N657        N  0.01130229  0.93699955  0.51526672    -0.82700
H658        H  0.05169197  0.90665561  0.51186965     0.13100
C659        C  0.09943852  0.91180468  0.49472423     0.02400
N660        N  0.10731454  0.96301223  0.47589023    -0.81300
H661        H  0.06529074  0.99199454  0.47588371     0.17900
C662        C  0.11182937  0.90594640  0.47206815    -0.26100
C663        C  0.13054786  0.88689139  0.47087287     0.35900
C664        C  0.13694178  0.87275998  0.49274420    -0.20100
C665        C  0.12467525  0.87897517  0.51553436    -0.25400
C666        C  0.10625577  0.89842316  0.51680268     0.27300
H667        H  0.10665469  0.91599550  0.45496527     0.13100
N668        N  0.14265360  0.88191220  0.44722223    -0.82700
H669        H  0.12946833  0.86869444  0.53258826     0.17900
N670        N  0.09453126  0.90471230  0.54046692    -0.81300
H671        H  0.12877378  0.87723522  0.43409000     0.33500
H672        H  0.15122365  0.89855644  0.44116598     0.38000
H673        H  0.10153615  0.89306939  0.55487991     0.33500
H674        H  0.09959925  0.92320892  0.54500453     0.30200
H675        H  0.10694257  0.98163908  0.46919046     0.33500
H676        H  0.11953805  0.96267162  0.49136187     0.30200
H677        H  0.01430684  0.93195319  0.53409610     0.38100
H678        H  0.00455772  0.92110553  0.50585110     0.33500
C679        C  0.67531755  0.28711493  0.44577567    -0.20200
C680        C  0.67294976  0.26058591  0.44518693     0.36000
C681        C  0.67492183  0.24780513  0.42192543    -0.26200
C682        C  0.67993416  0.26103149  0.39945530     0.02500
C683        C  0.68293035  0.28759805  0.40042950     0.27300
C684        C  0.67995259  0.30030533  0.42340642    -0.25300
N685        N  0.66818539  0.24684347  0.46805329    -0.82700
H686        H  0.67239125  0.22751896  0.42131979     0.13100
C687        C  0.68311158  0.24734148  0.37502965     0.02400
N688        N  0.68954462  0.30157674  0.37814735    -0.81300
H689        H  0.68196979  0.32068179  0.42401449     0.17900
C690        C  0.67077805  0.25674302  0.35341241    -0.26100
C691        C  0.67882018  0.24974325  0.32910218     0.35900
C692        C  0.69936619  0.23253488  0.32646271    -0.20100
C693        C  0.70854798  0.21997075  0.34807267    -0.25400
C694        C  0.70075062  0.22730895  0.37226440     0.27300
H695        H  0.65611289  0.27110197  0.35551023     0.13100
N696        N  0.66745196  0.26148033  0.30734397    -0.82700
H697        H  0.72358113  0.20593095  0.34641096     0.17900
N698        N  0.71198558  0.21535118  0.39383720    -0.81300
H699        H  0.65320435  0.27429106  0.31268073     0.33500
H700        H  0.65869973  0.24725079  0.29701070     0.38000
H701        H  0.70745911  0.19615818  0.39329009     0.33500
H702        H  0.73155291  0.21647304  0.39214762     0.30200
H703        H  0.69086185  0.32090006  0.38206366     0.33500
H704        H  0.70754050  0.29545259  0.37253799     0.30200
H705        H  0.65046090  0.25262929  0.47475960     0.38100
H706        H  0.66707029  0.22745696  0.46439503     0.33500
C707        C  0.25408377  0.33934663  0.72344830    -0.20200
C708        C  0.27121416  0.34040291  0.70307762     0.36000
C709        C  0.27994665  0.36400621  0.69458735    -0.26200
C710        C  0.27249579  0.38677143  0.70633483     0.02500
C711        C  0.25379783  0.38586965  0.72537036     0.27300
C712        C  0.24455047  0.36222099  0.73344540    -0.25300
N713        N  0.28033642  0.31739821  0.69161930    -0.82700
H714        H  0.29351616  0.36458169  0.67932580     0.13100
C715        C  0.28586633  0.41086531  0.69978402     0.02400
N716        N  0.24515876  0.40880872  0.73730958    -0.81300
H717        H  0.23140253  0.36160848  0.74907361     0.17900
C718        C  0.27210551  0.43306444  0.69362283    -0.26100
C719        C  0.28441048  0.45593628  0.68779666     0.35900
C720        C  0.31104885  0.45660066  0.68775421    -0.20100
C721        C  0.32476324  0.43443487  0.69355580    -0.25400
C722        C  0.31258149  0.41182144  0.70000685     0.27300
H723        H  0.25168233  0.43248286  0.69306334     0.13100
N724        N  0.26998394  0.47826950  0.68134361    -0.82700
H725        H  0.34521673  0.43491190  0.69350902     0.17900
N726        N  0.32731562  0.38988525  0.70717036    -0.81300
H727        H  0.25064406  0.47467189  0.68226127     0.33500
H728        H  0.27396324  0.48270687  0.66256205     0.38000
H729        H  0.34662633  0.39362846  0.70622534     0.33500
H730        H  0.32328447  0.38592315  0.72604465     0.30200
H731        H  0.23142635  0.40495126  0.75087896     0.33500
H732        H  0.26048439  0.41659721  0.74679852     0.30200
H733        H  0.26490017  0.30858538  0.68328875     0.38100
H734        H  0.29307969  0.32133231  0.67712940     0.33500
C735        C  0.44882399  0.66021704  0.29056806    -0.20200
C736        C  0.43308746  0.63883139  0.28803000     0.36000
C737        C  0.40800079  0.64211106  0.28021391    -0.26200
C738        C  0.39823019  0.66627804  0.27498003     0.02500
C739        C  0.41445950  0.68721820  0.27490103     0.27300
C740        C  0.43966997  0.68396124  0.28259698    -0.25300
N741        N  0.44191734  0.61361599  0.29333715    -0.82700
H742        H  0.39566840  0.62593260  0.27974912     0.13100
C743        C  0.37059110  0.67038660  0.27333363     0.02400
N744        N  0.40480037  0.71192319  0.26826846    -0.81300
H745        H  0.45164203  0.70034654  0.28405196     0.17900
C746        C  0.35889736  0.68395555  0.29280344    -0.26100
C747        C  0.33399661  0.69263197  0.29050001     0.35900
C748        C  0.32033856  0.68776287  0.26818135    -0.20100
C749        C  0.33106769  0.67157242  0.24995811    -0.25400
C750        C  0.35628203  0.66285339  0.25231927     0.27300
H751        H  0.36966211  0.68905720  0.30936859     0.13100
N752        N  0.32316720  0.70771431  0.31029118    -0.82700
H753        H  0.32067002  0.66760459  0.23287090     0.17900
N754        N  0.36773225  0.64752419  0.23299732    -0.81300
H755        H  0.32375617  0.69709028  0.32692563     0.33500
H756        H  0.33448082  0.72353899  0.31292217     0.38000
H757        H  0.35462014  0.64361210  0.21885419     0.33500
H758        H  0.38198889  0.65811009  0.22460237     0.30200
H759        H  0.41902478  0.72538515  0.26942610     0.33500
H760        H  0.39919936  0.71131040  0.24938860     0.30200
H761        H  0.44571677  0.61180265  0.31255327     0.38100
H762        H  0.45851077  0.61026442  0.28312501     0.33500
C763        C  0.66831798  0.44334566  0.27900364    -0.20200
C764        C  0.64858447  0.42870230  0.26908628     0.36000
C765        C  0.65440502  0.40594056  0.25642391    -0.26200
C766        C  0.67950309  0.39724923  0.25401814     0.02500
C767        C  0.69921741  0.41245171  0.26322558     0.27300
C768        C  0.69341386  0.43556440  0.27506254    -0.25300
N769        N  0.62275803  0.43688333  0.27210275    -0.82700
H770        H  0.63927890  0.39452559  0.24905667     0.13100
C771        C  0.68501398  0.37130002  0.24413508     0.02400
N772        N  0.72501400  0.40376279  0.26171088    -0.81300
H773        H  0.70856004  0.44679565  0.28268825     0.17900
C774        C  0.70308316  0.36788647  0.22500652    -0.26100
C775        C  0.71279713  0.34365976  0.21909075     0.35900
C776        C  0.70402283  0.32229021  0.23243315    -0.20100
C777        C  0.68378555  0.32553017  0.24935304    -0.25400
C778        C  0.67448495  0.34976406  0.25565721     0.27300
H779        H  0.71062272  0.38436238  0.21561741     0.13100
N780        N  0.73232726  0.34086653  0.20044163    -0.82700
H781        H  0.67662673  0.30931163  0.25945634     0.17900
N782        N  0.65555119  0.35259580  0.27492169    -0.81300
H783        H  0.73669691  0.35838239  0.19250756     0.33500
H784        H  0.72513689  0.32982085  0.18585529     0.38000
H785        H  0.64965949  0.33492645  0.28135612     0.33500
H786        H  0.66388702  0.36157208  0.29029809     0.30200
H787        H  0.73719686  0.41711225  0.26936433     0.33500
H788        H  0.72675897  0.38752215  0.27287711     0.30200
H789        H  0.62043352  0.45388119  0.26218781     0.38100
H790        H  0.61054071  0.42391898  0.26387630     0.33500
C791        C  0.24351196  0.70257140  0.33360142    -0.20200
C792        C  0.26400771  0.68529607  0.33614837     0.36000
C793        C  0.27278566  0.67850656  0.36034931    -0.26200
C794        C  0.26097100  0.68784618  0.38218506     0.02500
C795        C  0.23903430  0.70327720  0.37953823     0.27300
C796        C  0.23058225  0.71047356  0.35541336    -0.25300
N797        N  0.27614927  0.67510168  0.31409871    -0.82700
H798        H  0.28956148  0.66666257  0.36216225     0.13100
C799        C  0.27337764  0.68356189  0.40718106     0.02400
N800        N  0.22514492  0.71214263  0.40102904    -0.81300
H801        H  0.21471429  0.72356121  0.35382259     0.17900
C802        C  0.28407271  0.70429839  0.41950003    -0.26100
C803        C  0.29732111  0.70141482  0.44233980     0.35900
C804        C  0.30047981  0.67707298  0.45298477    -0.20100
C805        C  0.28988574  0.65621585  0.44067714    -0.25400
C806        C  0.27619477  0.65924108  0.41813910     0.27300
H807        H  0.28255617  0.72280689  0.41089699     0.13100
N808        N  0.30821485  0.72304285  0.45434973    -0.82700
H809        H  0.29204943  0.63746560  0.44877843     0.17900
N810        N  0.26495522  0.63741584  0.40708963    -0.81300
H811        H  0.30401378  0.73956487  0.44421803     0.33500
H812        H  0.32784382  0.72066634  0.45384848     0.38000
H813        H  0.27257602  0.63462068  0.38915052     0.33500
H814        H  0.24556194  0.64093545  0.40525686     0.30200
H815        H  0.23677672  0.72348961  0.41198838     0.33500
H816        H  0.21993254  0.69644491  0.41175724     0.30200
H817        H  0.26279991  0.66451283  0.30436061     0.38100
H818        H  0.29070521  0.66250802  0.31914874     0.33500
C819        C  0.33255717  0.27219005  0.71566420    -0.20200
C820        C  0.34965208  0.25398070  0.70568374     0.36000
C821        C  0.37420736  0.26119547  0.69895792    -0.26200
C822        C  0.38216537  0.28620284  0.70231904     0.02500
C823        C  0.36476823  0.30467769  0.71085652     0.27300
C824        C  0.34021276  0.29749781  0.71745129    -0.25300
N825        N  0.34318447  0.22784430  0.70371320    -0.82700
H826        H  0.38750800  0.24699048  0.69218739     0.13100
C827        C  0.40894749  0.29295429  0.69792803     0.02400
N828        N  0.37245799  0.33050458  0.71364799    -0.81300
H829        H  0.32728474  0.31155106  0.72520896     0.17900
C830        C  0.41738027  0.29697781  0.67328718    -0.26100
C831        C  0.44157054  0.30660652  0.66858864     0.35900
C832        C  0.45773370  0.31226909  0.68905286    -0.20100
C833        C  0.44973424  0.30681300  0.71367934    -0.25400
C834        C  0.42539342  0.29741657  0.71831730     0.27300
H835        H  0.40469978  0.29338459  0.65771536     0.13100
N836        N  0.44964646  0.31095909  0.64309436    -0.82700
H837        H  0.46200087  0.31105405  0.72940719     0.17900
N838        N  0.41690378  0.29318792  0.74367785    -0.81300
H839        H  0.43549386  0.30608289  0.63033181     0.33500
H840        H  0.46500553  0.29881964  0.63957931     0.38000
H841        H  0.41327751  0.27388951  0.74551028     0.33500
H842        H  0.43118860  0.29731527  0.75656650     0.30200
H843        H  0.35755633  0.34169337  0.72055115     0.33500
H844        H  0.37667309  0.33743596  0.69569308     0.30200
H845        H  0.32743065  0.22646956  0.69196109     0.38100
H846        H  0.33837823  0.22118895  0.72162616     0.33500
C847        C  0.46446595  0.53522859  0.49869195    -0.20200
C848        C  0.44294096  0.53375393  0.48327493     0.36000
C849        C  0.42473136  0.55327819  0.48372059    -0.26200
C850        C  0.42778311  0.57467764  0.49901052     0.02500
C851        C  0.44945978  0.57622917  0.51447366     0.27300
C852        C  0.46744454  0.55632412  0.51434395    -0.25300
N853        N  0.43952948  0.51246946  0.46705680    -0.82700
H854        H  0.40806101  0.55168826  0.47202598     0.13100
C855        C  0.40794481  0.59502360  0.49876703     0.02400
N856        N  0.45335267  0.59819407  0.52984192    -0.81300
H857        H  0.48419610  0.55751270  0.52597727     0.17900
C858        C  0.39652677  0.60254074  0.52147535    -0.26100
C859        C  0.37717161  0.62101755  0.52191565     0.35900
C860        C  0.36862212  0.63217022  0.49916784    -0.20100
C861        C  0.38005399  0.62455458  0.47642462    -0.25400
C862        C  0.39977547  0.60638899  0.47600186     0.27300
H863        H  0.40238904  0.59369809  0.53901248     0.13100
N864        N  0.36584623  0.62782310  0.54550332    -0.82700
H865        H  0.37391120  0.63315902  0.45887834     0.17900
N866        N  0.41171033  0.59961688  0.45256771    -0.81300
H867        H  0.35857597  0.61145730  0.55369254     0.33500
H868        H  0.38002120  0.63458377  0.55732122     0.38000
H869        H  0.40350999  0.60963070  0.43757470     0.33500
H870        H  0.43053983  0.60520816  0.45356275     0.30200
H871        H  0.47013971  0.59632214  0.54009629     0.33500
H872        H  0.45558279  0.61364451  0.51775211     0.30200
H873        H  0.43782975  0.51924788  0.44860790     0.38100
H874        H  0.42241516  0.50409150  0.47177603     0.33500
C875        C  0.46813113  0.49666420  0.53784813    -0.20200
C876        C  0.44564011  0.48261170  0.53643248     0.36000
C877        C  0.42941451  0.48217228  0.55723958    -0.26200
C878        C  0.43514444  0.49517547  0.57945756     0.02500
C879        C  0.45810320  0.50846559  0.58119591     0.27300
C880        C  0.47403336  0.50941384  0.56016796    -0.25300
N881        N  0.43878629  0.46834116  0.51448555    -0.82700
H882        H  0.41191595  0.47186831  0.55592448     0.13100
C883        C  0.41590336  0.49594720  0.59966055     0.02400
N884        N  0.46594332  0.52099111  0.60387367    -0.81300
H885        H  0.49142307  0.51988328  0.56138692     0.17900
C886        C  0.41062346  0.47392800  0.61335043    -0.26100
C887        C  0.39199333  0.47400271  0.63229275     0.35900
C888        C  0.37799416  0.49647934  0.63711429    -0.20100
C889        C  0.38352348  0.51849435  0.62329153    -0.25400
C890        C  0.40224810  0.51842775  0.60460145     0.27300
H891        H  0.42132167  0.45674379  0.60941573     0.13100
N892        N  0.38767799  0.45154649  0.64690430    -0.82700
H893        H  0.37294106  0.53583131  0.62681281     0.17900
N894        N  0.40748326  0.54106489  0.59054625    -0.81300
H895        H  0.39947107  0.43671897  0.64085414     0.33500
H896        H  0.39282983  0.45542351  0.66550745     0.38000
H897        H  0.40278886  0.53774214  0.57171519     0.33500
H898        H  0.39595134  0.55607912  0.59662958     0.30200
H899        H  0.48290364  0.51243925  0.60969063     0.33500
H900        H  0.45318060  0.51826324  0.61856850     0.30200
H901        H  0.45204544  0.47000026  0.50005965     0.38100
H902        H  0.42180046  0.47594409  0.50762934     0.33500
C903        C  0.49691539  0.62970557  0.36351559    -0.20200
C904        C  0.47591422  0.62700818  0.37966182     0.36000
C905        C  0.47750731  0.61000604  0.39999962    -0.26200
C906        C  0.49962840  0.59583091  0.40434874     0.02500
C907        C  0.52084563  0.59906894  0.38876763     0.27300
C908        C  0.51937543  0.61624377  0.36860629    -0.25300
N909        N  0.45308891  0.64141139  0.37525234    -0.82700
H910        H  0.46129269  0.60727085  0.41211298     0.13100
C911        C  0.49954219  0.57567581  0.42352948     0.02400
N912        N  0.54330179  0.58396311  0.39277081    -0.81300
H913        H  0.53544333  0.61831546  0.35616468     0.17900
C914        C  0.49149059  0.55162318  0.41639327    -0.26100
C915        C  0.49196377  0.53138743  0.43339511     0.35900
C916        C  0.50094828  0.53538360  0.45817948    -0.20100
C917        C  0.50858125  0.55967534  0.46539100    -0.25400
C918        C  0.50791272  0.57995382  0.44828242     0.27300
H919        H  0.48477546  0.54856510  0.39735714     0.13100
N920        N  0.48256648  0.50746107  0.42497327    -0.82700
H921        H  0.51524371  0.56270582  0.48444320     0.17900
N922        N  0.51532841  0.60483697  0.45597586    -0.81300
H923        H  0.49454016  0.50082899  0.41070334     0.33500
H924        H  0.48275614  0.49392806  0.43930082     0.38000
H925        H  0.52056805  0.60478670  0.47498355     0.33500
H926        H  0.53141369  0.60963581  0.44574638     0.30200
H927        H  0.55696318  0.58814932  0.37921464     0.33500
H928        H  0.55091018  0.58898049  0.41018133     0.30200
H929        H  0.45731201  0.66053012  0.37758152     0.38100
H930        H  0.43945076  0.63710868  0.38879050     0.33500
C931        C  0.53800368  0.49363714  0.45375233    -0.20200
C932        C  0.55797728  0.51056773  0.45042934     0.36000
C933        C  0.57420036  0.50775856  0.42971997    -0.26200
C934        C  0.57087435  0.48823815  0.41216475     0.02500
C935        C  0.55113216  0.47094780  0.41567245     0.27300
C936        C  0.53493006  0.47380943  0.43649170    -0.25300
N937        N  0.56208479  0.53039873  0.46823623    -0.82700
H938        H  0.58955869  0.52088019  0.42734743     0.13100
C939        C  0.58795900  0.48659542  0.39000960     0.02400
N940        N  0.54746350  0.45078555  0.39796090    -0.81300
H941        H  0.51965588  0.46066720  0.43921094     0.17900
C942        C  0.60260408  0.46460236  0.38596146    -0.26100
C943        C  0.61970731  0.46296723  0.36568203     0.35900
C944        C  0.62241069  0.48396792  0.34942946    -0.20100
C945        C  0.60757167  0.50581231  0.35341385    -0.25400
C946        C  0.59014783  0.50722586  0.37330177     0.27300
H947        H  0.60099265  0.44885711  0.39895226     0.13100
N948        N  0.63521035  0.44065245  0.36240444    -0.82700
H949        H  0.60960354  0.52188174  0.34089029     0.17900
N950        N  0.57469405  0.52956563  0.37669649    -0.81300
H951        H  0.63209147  0.42775128  0.37700424     0.33500
H952        H  0.62933385  0.43175983  0.34588533     0.38000
H953        H  0.57867264  0.54305853  0.36287208     0.33500
H954        H  0.55588324  0.52443589  0.37409745     0.30200
H955        H  0.53223761  0.43964289  0.40339288     0.33500
H956        H  0.54259652  0.45899449  0.38065669     0.30200
H957        H  0.56145047  0.54762017  0.45850859     0.38100
H958        H  0.58030080  0.52808115  0.47555084     0.33500
C959        C  0.54277886  0.45731975  0.49416804    -0.20200
C960        C  0.56815388  0.46224048  0.50068625     0.36000
C961        C  0.58637887  0.44299621  0.49807343    -0.26200
C962        C  0.57997838  0.41894072  0.48927171     0.02500
C963        C  0.55469203  0.41394391  0.48285826     0.27300
C964        C  0.53635536  0.43327821  0.48525735    -0.25300
N965        N  0.57620092  0.48640793  0.50983591    -0.82700
H966        H  0.60577952  0.44679796  0.50315494     0.13100
C967        C  0.59972441  0.39879315  0.48878147     0.02400
N968        N  0.54771182  0.38921630  0.47431033    -0.81300
H969        H  0.51693593  0.42966774  0.48012814     0.17900
C970        C  0.61152051  0.39189828  0.51143200    -0.26100
C971        C  0.62962936  0.37223383  0.51239786     0.35900
C972        C  0.63647388  0.35931858  0.48992044    -0.20100
C973        C  0.62497646  0.36689099  0.46709086    -0.25400
C974        C  0.60678922  0.38646666  0.46637032     0.27300
H975        H  0.60601829  0.40153183  0.52863811     0.13100
N976        N  0.64052652  0.36515804  0.53625455    -0.82700
H977        H  0.63008056  0.35762492  0.44958381     0.17900
N978        N  0.59578648  0.39402982  0.44281690    -0.81300
H979        H  0.63427072  0.37733031  0.55053724     0.33500
H980        H  0.63380240  0.34723052  0.54086471     0.38000
H981        H  0.61033714  0.39958612  0.43078864     0.33500
H982        H  0.58719273  0.37824987  0.43486313     0.30200
H983        H  0.52840847  0.38875811  0.47023749     0.33500
H984        H  0.55083904  0.37653705  0.48917144     0.30200
H985        H  0.56121336  0.49929576  0.51131335     0.38100
H986        H  0.58325853  0.48372046  0.52806790     0.33500
C987        C  0.50854981  0.45984222  0.53707790    -0.20200
C988        C  0.52212790  0.46552866  0.55932479     0.36000
C989        C  0.52201843  0.44831545  0.57941946    -0.26200
C990        C  0.50850959  0.42579301  0.57794781     0.02500
C991        C  0.49525407  0.41993411  0.55576041     0.27300
C992        C  0.49542411  0.43705041  0.53548471    -0.25300
N993        N  0.53540686  0.48882934  0.56260653    -0.82700
H994        H  0.53209043  0.45281562  0.59658073     0.13100
C995        C  0.50787459  0.40876371  0.60006084     0.02400
N996        N  0.48146716  0.39677449  0.55410304    -0.81300
H997        H  0.48488338  0.43289354  0.51852721     0.17900
C998        C  0.48574785  0.40752264  0.61445586    -0.26100
C999        C  0.48426204  0.39131485  0.63542336     0.35900
C1000       C  0.50530093  0.37583195  0.64183527    -0.20100
C1001       C  0.52766184  0.37766064  0.62772463    -0.25400
C1002       C  0.52908843  0.39387268  0.60676177     0.27300
H1003       H  0.46965099  0.41935118  0.60932806     0.13100
N1004       N  0.46164339  0.39079590  0.65039163    -0.82700
H1005       H  0.54383133  0.36584487  0.63261244     0.17900
N1006       N  0.55181619  0.39505541  0.59201461    -0.81300
H1007       H  0.44799348  0.40329216  0.64309708     0.33500
H1008       H  0.46619012  0.39744726  0.66835274     0.38000
H1009       H  0.56572382  0.38294947  0.59947198     0.33500
H1010       H  0.54767857  0.38829837  0.57399689     0.30200
H1011       H  0.47255152  0.39541337  0.53659461     0.33500
H1012       H  0.49456285  0.38179670  0.55508199     0.30200
H1013       H  0.53388974  0.50051474  0.54684061     0.38100
H1014       H  0.55457478  0.48429984  0.56481052     0.33500
C1015       C  0.83476025  0.27550568  0.05612022    -0.20200
C1016       C  0.85509226  0.26241008  0.06780263     0.36000
C1017       C  0.85118318  0.25004427  0.09103324    -0.26200
C1018       C  0.82739251  0.25068260  0.10261877     0.02500
C1019       C  0.80739071  0.26417097  0.09108324     0.27300
C1020       C  0.81103778  0.27596502  0.06775629    -0.25300
N1021       N  0.87949196  0.26160604  0.05596202    -0.82700
H1022       H  0.86663872  0.23995923  0.10014055     0.13100
C1023       C  0.82340870  0.23863649  0.12751548     0.02400
N1024       N  0.78353846  0.26669057  0.10357276    -0.81300
H1025       H  0.79547964  0.28639661  0.05918655     0.17900
C1026       C  0.83439700  0.24933250  0.14893032    -0.26100
C1027       C  0.82507758  0.24390399  0.17309843     0.35900
C1028       C  0.80429582  0.22759090  0.17579772    -0.20100
C1029       C  0.79602158  0.21411811  0.15456959    -0.25400
C1030       C  0.80534987  0.21955530  0.13042589     0.27300
H1031       H  0.84878866  0.26354536  0.14677451     0.13100
N1032       N  0.83566355  0.25635236  0.19450961    -0.82700
H1033       H  0.78070209  0.20087738  0.15643567     0.17900
N1034       N  0.79533659  0.20711104  0.10862410    -0.81300
H1035       H  0.83393352  0.27589830  0.19172541     0.33500
H1036       H  0.85490021  0.25168572  0.19529957     0.38000
H1037       H  0.81021258  0.19711958  0.10009164     0.33500
H1038       H  0.78203952  0.19369303  0.11395670     0.30200
H1039       H  0.76982390  0.25959687  0.09146777     0.33500
H1040       H  0.77968403  0.28592328  0.10623128     0.30200
H1041       H  0.87766111  0.25177430  0.03899220     0.38100
H1042       H  0.89235593  0.25125945  0.06698515     0.33500
C1043       C  0.03838253  0.29767614  0.80943094    -0.20200
C1044       C  0.04847753  0.28973018  0.78601048     0.36000
C1045       C  0.07294462  0.27869713  0.78517626    -0.26200
C1046       C  0.08745735  0.27564478  0.80717763     0.02500
C1047       C  0.07709477  0.28272252  0.83053868     0.27300
C1048       C  0.05279362  0.29359419  0.83143160    -0.25300
N1049       N  0.03442543  0.29370692  0.76314568    -0.82700
H1050       H  0.08115954  0.27336955  0.76722531     0.13100
C1051       C  0.11396547  0.26617353  0.80560705     0.02400
N1052       N  0.09153695  0.27917536  0.85325196    -0.81300
H1053       H  0.04520035  0.29929692  0.84954516     0.17900
C1054       C  0.13369560  0.28277825  0.81078860    -0.26100
C1055       C  0.15912671  0.27476934  0.80930362     0.35900
C1056       C  0.16497537  0.24955471  0.80203274    -0.20100
C1057       C  0.14499607  0.23277190  0.79777768    -0.25400
C1058       C  0.11961474  0.24076128  0.79981294     0.27300
H1059       H  0.12917253  0.30220775  0.81574695     0.13100
N1060       N  0.17886567  0.29244247  0.81433423    -0.82700
H1061       H  0.14913104  0.21337287  0.79244892     0.17900
N1062       N  0.09952686  0.22316677  0.79617299    -0.81300
H1063       H  0.17130370  0.31038755  0.81829836     0.33500
H1064       H  0.18816714  0.28637272  0.83068619     0.38000
H1065       H  0.10683638  0.20513265  0.79216689     0.33500
H1066       H  0.08979369  0.22165046  0.81323987     0.30200
H1067       H  0.08134390  0.28563090  0.86891636     0.33500
H1068       H  0.09436377  0.25972073  0.85577456     0.30200
H1069       H  0.03273292  0.31324295  0.76028283     0.38100
H1070       H  0.04442051  0.28646460  0.74770276     0.33500
C1071       C  0.82241230  0.44595534  0.20556872    -0.20200
C1072       C  0.84179464  0.42960419  0.21450149     0.36000
C1073       C  0.83547498  0.40656480  0.22601414    -0.26200
C1074       C  0.81023196  0.39926363  0.22845256     0.02500
C1075       C  0.79083519  0.41578583  0.21985948     0.27300
C1076       C  0.79712149  0.43917705  0.20895404    -0.25300
N1077       N  0.86783641  0.43641736  0.21176747    -0.82700
H1078       H  0.85033799  0.39400545  0.23281774     0.13100
C1079       C  0.80450322  0.37377760  0.23893087     0.02400
N1080       N  0.76490866  0.40830665  0.22131451    -0.81300
H1081       H  0.78225434  0.45156859  0.20186058     0.17900
C1082       C  0.78863239  0.37161542  0.25999520    -0.26100
C1083       C  0.78145657  0.34774880  0.26923270     0.35900
C1084       C  0.79038650  0.32550017  0.25715307    -0.20100
C1085       C  0.80756276  0.32778884  0.23707502    -0.25400
C1086       C  0.81438518  0.35160040  0.22761364     0.27300
H1087       H  0.78145525  0.38866116  0.26896470     0.13100
N1088       N  0.76468341  0.34605150  0.29044503    -0.82700
H1089       H  0.81435919  0.31094148  0.22748009     0.17900
N1090       N  0.83042126  0.35331981  0.20581773    -0.81300
H1091       H  0.75992537  0.36408249  0.29716448     0.33500
H1092       H  0.77453701  0.33684083  0.30495584     0.38000
H1093       H  0.83609840  0.33530723  0.19973756     0.33500
H1094       H  0.81969617  0.36132270  0.19121505     0.30200
H1095       H  0.75296281  0.42252606  0.21416267     0.33500
H1096       H  0.76279067  0.39257443  0.20965154     0.30200
H1097       H  0.87072643  0.45259910  0.22263617     0.38100
H1098       H  0.87972875  0.42224739  0.21909025     0.33500
C1099       C  0.04545176  0.66297083  0.20029279    -0.20200
C1100       C  0.04948601  0.68536716  0.21443486     0.36000
C1101       C  0.07409164  0.69107934  0.22272555    -0.26200
C1102       C  0.09464056  0.67483739  0.21765360     0.02500
C1103       C  0.09047358  0.65204642  0.20495806     0.27300
C1104       C  0.06612652  0.64623558  0.19653853    -0.25300
N1105       N  0.02899900  0.70270149  0.21966320    -0.82700
H1106       H  0.07745906  0.70871265  0.23247491     0.13100
C1107       C  0.12074864  0.68352335  0.22243846     0.02400
N1108       N  0.11122110  0.63520292  0.19967164    -0.81300
H1109       H  0.06370002  0.62876276  0.18624055     0.17900
C1110       C  0.13329485  0.67748441  0.24505279    -0.26100
C1111       C  0.15764273  0.68667698  0.25008003     0.35900
C1112       C  0.16979153  0.70221603  0.23208158    -0.20100
C1113       C  0.15724128  0.70733143  0.20920103    -0.25400
C1114       C  0.13318210  0.69820153  0.20422220     0.27300
H1115       H  0.12389302  0.66605861  0.25908447     0.13100
N1116       N  0.16891113  0.68089377  0.27396203    -0.82700
H1117       H  0.16580592  0.71943443  0.19527333     0.17900
N1118       N  0.12155114  0.70452468  0.18060147    -0.81300
H1119       H  0.17245467  0.69786341  0.28332708     0.33500
H1120       H  0.18604199  0.67135688  0.27080937     0.38000
H1121       H  0.11729307  0.68773694  0.17123008     0.33500
H1122       H  0.10469427  0.71441946  0.18415153     0.30200
H1123       H  0.10723195  0.61760956  0.20766193     0.33500
H1124       H  0.11238538  0.63290379  0.18013839     0.30200
H1125       H  0.01705962  0.69377919  0.23248329     0.38100
H1126       H  0.03554982  0.71884661  0.22878776     0.33500
C1127       C  0.19231429  0.45988302  0.80989590    -0.20200
C1128       C  0.18110997  0.43799313  0.79988817     0.36000
C1129       C  0.19497235  0.41530314  0.79864481    -0.26200
C1130       C  0.21980530  0.41346977  0.80786545     0.02500
C1131       C  0.23159759  0.43568064  0.81658673     0.27300
C1132       C  0.21776371  0.45873053  0.81724971    -0.25300
N1133       N  0.15569973  0.43828411  0.79066001    -0.82700
H1134       H  0.18602656  0.39873773  0.79086827     0.13100
C1135       C  0.23272211  0.38807106  0.80832623     0.02400
N1136       N  0.25720943  0.43462807  0.82551532    -0.81300
H1137       H  0.22644643  0.47554472  0.82478816     0.17900
C1138       C  0.25669050  0.38486161  0.79739973    -0.26100
C1139       C  0.26796993  0.36074632  0.79499216     0.35900
C1140       C  0.25500873  0.33907474  0.80338283    -0.20100
C1141       C  0.23172644  0.34246945  0.81571056    -0.25400
C1142       C  0.22062005  0.36666790  0.81854005     0.27300
H1143       H  0.26638358  0.40103995  0.78973743     0.13100
N1144       N  0.29216926  0.35841251  0.78309042    -0.82700
H1145       H  0.22179376  0.32610524  0.82266133     0.17900
N1146       N  0.19692335  0.36957172  0.83152706    -0.81300
H1147       H  0.30499519  0.36915046  0.79335481     0.33500
H1148       H  0.29082584  0.36614537  0.76498187     0.38000
H1149       H  0.19048035  0.35206039  0.83784252     0.33500
H1150       H  0.20013218  0.38049424  0.84758678     0.30200
H1151       H  0.26307324  0.45256273  0.83113658     0.33500
H1152       H  0.25763954  0.42314561  0.84157548     0.30200
H1153       H  0.14350819  0.44250607  0.80554349     0.38100
H1154       H  0.15396322  0.45253250  0.77704406     0.33500
C1155       C  0.19047782  0.67005131  0.03875269    -0.20200
C1156       C  0.19344534  0.65066984  0.05714663     0.36000
C1157       C  0.20391313  0.65642478  0.08071296    -0.26200
C1158       C  0.21164434  0.68093225  0.08626627     0.02500
C1159       C  0.21059416  0.69971500  0.06741397     0.27300
C1160       C  0.20015647  0.69413777  0.04376442    -0.25300
N1161       N  0.18536894  0.62531193  0.05210277    -0.82700
H1162       H  0.20493498  0.64202919  0.09526911     0.13100
C1163       C  0.21699651  0.68744286  0.11281291     0.02400
N1164       N  0.21935187  0.72468709  0.07259772    -0.81300
H1165       H  0.19846123  0.70906769  0.02981475     0.17900
C1166       C  0.23905140  0.67847927  0.12473798    -0.26100
C1167       C  0.24458218  0.68535270  0.14982213     0.35900
C1168       C  0.22728256  0.70091259  0.16321474    -0.20100
C1169       C  0.20477841  0.70878546  0.15134248    -0.25400
C1170       C  0.19937650  0.70209539  0.12646283     0.27300
H1171       H  0.25233541  0.66689240  0.11415221     0.13100
N1172       N  0.26815882  0.67772847  0.16112899    -0.82700
H1173       H  0.19174629  0.72121773  0.16117925     0.17900
N1174       N  0.17621774  0.71051017  0.11477061    -0.81300
H1175       H  0.27853845  0.66617706  0.14881350     0.33500
H1176       H  0.27879278  0.69402300  0.16379990     0.38000
H1177       H  0.16539631  0.72139773  0.12729824     0.33500
H1178       H  0.16566567  0.69445829  0.11068887     0.30200
H1179       H  0.23342410  0.72892321  0.05949389     0.33500
H1180       H  0.20430473  0.73741767  0.06982527     0.30200
H1181       H  0.19667492  0.61813190  0.03754115     0.38100
H1182       H  0.18848257  0.61358857  0.06771545     0.33500
C1183       C  0.03266771  0.48988474  0.95569325    -0.20200
C1184       C  0.05824737  0.48219131  0.95877381     0.36000
C1185       C  0.07525077  0.48545015  0.93882031    -0.26200
C1186       C  0.06732468  0.49569211  0.91573392     0.02500
C1187       C  0.04179138  0.50263247  0.91228623     0.27300
C1188       C  0.02475290  0.49988005  0.93240116    -0.25300
N1189       N  0.06754463  0.47046025  0.98146630    -0.82700
H1190       H  0.09481793  0.47964808  0.94124588     0.13100
C1191       C  0.08591170  0.49813631  0.89506957     0.02400
N1192       N  0.03323929  0.51203409  0.88827762    -0.81300
H1193       H  0.00521333  0.50575347  0.93002933     0.17900
C1194       C  0.08993533  0.47767089  0.87877598    -0.26100
C1195       C  0.10812022  0.47874555  0.85949421     0.35900
C1196       C  0.12279614  0.50074501  0.85665241    -0.20100
C1197       C  0.11826214  0.52143465  0.87277409    -0.25400
C1198       C  0.10005797  0.52029468  0.89204588     0.27300
H1199       H  0.07883842  0.46076507  0.88119809     0.13100
N1200       N  0.11144006  0.45771468  0.84264323    -0.82700
H1201       H  0.12944949  0.53832429  0.87079874     0.17900
N1202       N  0.09640219  0.54120494  0.90903089    -0.81300
H1203       H  0.09946864  0.44293831  0.84756138     0.33500
H1204       H  0.10585127  0.46382573  0.82471394     0.38000
H1205       H  0.10865815  0.55589010  0.90458537     0.33500
H1206       H  0.07809711  0.54835816  0.90636045     0.30200
H1207       H  0.01379941  0.51574376  0.88870472     0.33500
H1208       H  0.04194602  0.52935373  0.88502528     0.30200
H1209       H  0.05330581  0.46823376  0.99484114     0.38100
H1210       H  0.08100074  0.48241690  0.98923414     0.33500
C1211       C  0.03438554  0.52568731  0.99707261    -0.20200
C1212       C  0.05383671  0.52554426  0.01519332     0.36000
C1213       C  0.07192375  0.54461470  0.01472961    -0.26200
C1214       C  0.07087989  0.56370889  0.99635599     0.02500
C1215       C  0.05157531  0.56368699  0.97816308     0.27300
C1216       C  0.03349291  0.54471903  0.97866726    -0.25300
N1217       N  0.05544191  0.50595475  0.03384363    -0.82700
H1218       H  0.08690554  0.54445626  0.02864336     0.13100
C1219       C  0.08996017  0.58374510  0.99633755     0.02400
N1220       N  0.05003057  0.58322565  0.95946309    -0.81300
H1221       H  0.01851115  0.54496275  0.96475933     0.17900
C1222       C  0.10539482  0.58665576  0.97510505    -0.26100
C1223       C  0.12309810  0.60601129  0.97399146     0.35900
C1224       C  0.12558099  0.62262217  0.99453357    -0.20100
C1225       C  0.11046077  0.61940158  0.01599740    -0.25400
C1226       C  0.09241827  0.60024560  0.01700031     0.27300
H1227       H  0.10368950  0.57379177  0.95932439     0.13100
N1228       N  0.13899501  0.60827383  0.95228768    -0.82700
H1229       H  0.11240345  0.63218114  0.03180630     0.17900
N1230       N  0.07637100  0.59766797  0.03868694    -0.81300
H1231       H  0.14902038  0.59122956  0.95006696     0.33500
H1232       H  0.12742677  0.61083615  0.93649474     0.38000
H1233       H  0.08061750  0.61132195  0.05221075     0.33500
H1234       H  0.05778976  0.60131157  0.03290968     0.30200
H1235       H  0.05080825  0.57466649  0.94172619     0.33500
H1236       H  0.03246740  0.59234515  0.96122104     0.30200
H1237       H  0.05504554  0.51452536  0.05158249     0.38100
H1238       H  0.07297361  0.49681253  0.03200938     0.33500
C1239       C  0.99671861  0.52408293  0.03721358    -0.20200
C1240       C  0.99091625  0.55011588  0.03344897     0.36000
C1241       C  0.99268107  0.56686461  0.05382334    -0.26200
C1242       C  0.99896181  0.55818221  0.07801128     0.02500
C1243       C  0.00391058  0.53225947  0.08203722     0.27300
C1244       C  0.00297760  0.51551401  0.06154633    -0.25300
N1245       N  0.98280266  0.56017551  0.00952213    -0.82700
H1246       H  0.98851863  0.58679782  0.05088512     0.13100
C1247       C  0.99944974  0.57645694  0.09908381     0.02400
N1248       N  0.00958332  0.52305619  0.10693837    -0.81300
H1249       H  0.00739411  0.49564397  0.06447120     0.17900
C1250       C  0.97741229  0.58081169  0.11309424    -0.26100
C1251       C  0.97673887  0.59880842  0.13260173     0.35900
C1252       C  0.99857763  0.61297208  0.13793782    -0.20100
C1253       C  0.02081802  0.60802087  0.12417834    -0.25400
C1254       C  0.02144193  0.58993664  0.10476465     0.27300
H1255       H  0.96065697  0.57016654  0.10867816     0.13100
N1256       N  0.95407372  0.60249102  0.14713078    -0.82700
H1257       H  0.03764484  0.61871069  0.12818457     0.17900
N1258       N  0.04410183  0.58561128  0.09038860    -0.81300
H1259       H  0.93977687  0.59070983  0.14065655     0.33500
H1260       H  0.95804229  0.59686434  0.16563029     0.38000
H1261       H  0.05852589  0.59731333  0.09670942     0.33500
H1262       H  0.05019746  0.56700359  0.09371734     0.30200
H1263       H  0.01224997  0.50341068  0.10675580     0.33500
H1264       H  0.02675963  0.53078802  0.11246861     0.30200
H1265       H  0.98064610  0.54593418  0.99616083     0.38100
H1266       H  0.96480299  0.56817167  0.01204365     0.33500
C1267       C  0.95889834  0.48507148  0.03650563    -0.20200
C1268       C  0.93855280  0.50250171  0.03736545     0.36000
C1269       C  0.92209250  0.50224402  0.05809185    -0.26200
C1270       C  0.92575559  0.48503578  0.07800365     0.02500
C1271       C  0.94600391  0.46740413  0.07694886     0.27300
C1272       C  0.96233793  0.46757252  0.05612483    -0.25300
N1273       N  0.93512437  0.52075488  0.01749992    -0.82700
H1274       H  0.90635663  0.51556322  0.05880262     0.13100
C1275       C  0.90806203  0.48566245  0.09968896     0.02400
N1276       N  0.95020056  0.44980983  0.09726500    -0.81300
H1277       H  0.97834833  0.45459918  0.05555747     0.17900
C1278       C  0.89465600  0.46383284  0.10586856    -0.26100
C1279       C  0.87665511  0.46401371  0.12531177     0.35900
C1280       C  0.87191540  0.48662779  0.13885423    -0.20100
C1281       C  0.88565536  0.50837892  0.13286013    -0.25400
C1282       C  0.90389474  0.50804701  0.11362176     0.27300
H1283       H  0.89778134  0.44673983  0.09498076     0.13100
N1284       N  0.86264943  0.44153972  0.13072428    -0.82700
H1285       H  0.88227586  0.52566647  0.14336227     0.17900
N1286       N  0.91826369  0.53028840  0.10818417    -0.81300
H1287       H  0.86872943  0.42653263  0.11931241     0.33500
H1288       H  0.84378680  0.44522104  0.12599152     0.38000
H1289       H  0.91294292  0.54515314  0.12012948     0.33500
H1290       H  0.93720178  0.52604907  0.11213238     0.30200
H1291       H  0.96578311  0.43804991  0.09345720     0.33500
H1292       H  0.95473928  0.46028304  0.11329113     0.30200
H1293       H  0.93121811  0.51091734  0.00094557     0.38100
H1294       H  0.91942717  0.53242431  0.02112415     0.33500
C1295       C  0.96069787  0.44610700  0.99790172    -0.20200
C1296       C  0.93702167  0.44605834  0.98591303     0.36000
C1297       C  0.92172212  0.42468278  0.98793309    -0.26200
C1298       C  0.92987695  0.40334386  0.00165397     0.02500
C1299       C  0.95406687  0.40298510  0.01271444     0.27300
C1300       C  0.96911248  0.42453447  0.01098154    -0.25300
N1301       N  0.92851612  0.46760273  0.97171285    -0.82700
H1302       H  0.90332538  0.42480974  0.97898644     0.13100
C1303       C  0.91290837  0.38149830  0.00424182     0.02400
N1304       N  0.96325610  0.38069019  0.02550633    -0.81300
H1305       H  0.98759567  0.42452455  0.01972552     0.17900
C1306       C  0.90743029  0.36701229  0.98289978    -0.26100
C1307       C  0.89072890  0.34664402  0.98432748     0.35900
C1308       C  0.87929696  0.34071673  0.00765622    -0.20100
C1309       C  0.88518651  0.35498663  0.02908074    -0.25400
C1310       C  0.90162875  0.37556246  0.02756265     0.27300
H1311       H  0.91615416  0.37174152  0.96505515     0.13100
N1312       N  0.88531846  0.33201423  0.96220059    -0.82700
H1313       H  0.87608013  0.35075074  0.04685045     0.17900
N1314       N  0.90569843  0.39133479  0.04920998    -0.81300
H1315       H  0.89507680  0.33899288  0.94660058     0.33500
H1316       H  0.89215552  0.31360932  0.96534548     0.38000
H1317       H  0.89465125  0.38537318  0.06437717     0.33500
H1318       H  0.92444523  0.38894968  0.05488930     0.30200
H1319       H  0.96498854  0.36627508  0.01212831     0.33500
H1320       H  0.98134369  0.38362295  0.03273546     0.30200
H1321       H  0.92500082  0.46167817  0.95327077     0.38100
H1322       H  0.91137565  0.47388296  0.97941639     0.33500
C1323       C  0.99439898  0.45111656  0.95573137    -0.20200
C1324       C  0.00828107  0.42833489  0.95716583     0.36000
C1325       C  0.00654731  0.41070188  0.93762488    -0.26200
C1326       C  0.99146737  0.41574777  0.91638658     0.02500
C1327       C  0.97759712  0.43871454  0.91488514     0.27300
C1328       C  0.97906102  0.45613088  0.93475903    -0.25300
N1329       N  0.02418114  0.42315053  0.97843185    -0.82700
H1330       H  0.01719174  0.39307350  0.93891360     0.13100
C1331       C  0.99130215  0.39729516  0.89541725     0.02400
N1332       N  0.96248172  0.44439305  0.89303991    -0.81300
H1333       H  0.96847865  0.47381048  0.93382661     0.17900
C1334       C  0.96841099  0.38690825  0.88746695    -0.26100
C1335       C  0.96770087  0.36942199  0.86752799     0.35900
C1336       C  0.99045935  0.36222997  0.85536190    -0.20100
C1337       C  0.01331679  0.37258447  0.86358749    -0.25400
C1338       C  0.01395065  0.39019509  0.88326328     0.27300
H1339       H  0.95109100  0.39229184  0.89706358     0.13100
N1340       N  0.94408866  0.35868838  0.86000104    -0.82700
H1341       H  0.03081940  0.36728909  0.85428990     0.17900
N1342       N  0.03746877  0.40120607  0.89073772    -0.81300
H1343       H  0.92920108  0.36629792  0.87063718     0.33500
H1344       H  0.94494796  0.33934552  0.86416083     0.38000
H1345       H  0.05241017  0.39388732  0.87998257     0.33500
H1346       H  0.03633078  0.42058368  0.88678851     0.30200
H1347       H  0.95343445  0.46200718  0.89499005     0.33500
H1348       H  0.97469061  0.44591267  0.87765039     0.30200
H1349       H  0.01832420  0.40623464  0.98666887     0.38100
H1350       H  0.04261379  0.42035824  0.97184826     0.33500
C1351       C  0.27389956  0.78560930  0.16521300    -0.20200
C1352       C  0.25606813  0.79249068  0.14647265     0.36000
C1353       C  0.26436759  0.79957405  0.12244633    -0.26200
C1354       C  0.29015790  0.79978225  0.11661079     0.02500
C1355       C  0.30802701  0.79373435  0.13549778     0.27300
C1356       C  0.29974705  0.78632702  0.15940839    -0.25300
N1357       N  0.22944611  0.79101142  0.15083108    -0.82700
H1358       H  0.25059135  0.80433774  0.10803095     0.13100
C1359       C  0.29812543  0.80674317  0.09082839     0.02400
N1360       N  0.33462311  0.79450409  0.13069832    -0.81300
H1361       H  0.31356167  0.78018550  0.17326092     0.17900
C1362       C  0.30289526  0.83211596  0.08560894    -0.26100
C1363       C  0.31105473  0.83968016  0.06170167     0.35900
C1364       C  0.31489370  0.82146592  0.04244843    -0.20100
C1365       C  0.30911092  0.79606779  0.04747993    -0.25400
C1366       C  0.30079845  0.78850943  0.07157738     0.27300
H1367       H  0.30037094  0.84617834  0.10028012     0.13100
N1368       N  0.31515724  0.86602548  0.05706748    -0.82700
H1369       H  0.31186299  0.78198050  0.03289410     0.17900
N1370       N  0.29510208  0.76247251  0.07661113    -0.81300
H1371       H  0.29829244  0.87589644  0.06068141     0.33500
H1372       H  0.32875455  0.87228504  0.06981582     0.38000
H1373       H  0.29772931  0.75153105  0.06040922     0.33500
H1374       H  0.30810226  0.75570733  0.08993492     0.30200
H1375       H  0.33913353  0.81289247  0.12517916     0.33500
H1376       H  0.33882856  0.78226669  0.11577820     0.30200
H1377       H  0.22480585  0.80256287  0.16616370     0.38100
H1378       H  0.22509091  0.77233210  0.15533149     0.33500
C1379       C  0.45379792  0.81094832  0.18989040    -0.20200
C1380       C  0.43332747  0.80479996  0.17411310     0.36000
C1381       C  0.40911092  0.80160525  0.18453400    -0.26200
C1382       C  0.40478591  0.80428349  0.21050999     0.02500
C1383       C  0.42540718  0.81000117  0.22632104     0.27300
C1384       C  0.44969474  0.81321929  0.21593436    -0.25300
N1385       N  0.43733261  0.80154155  0.14751470    -0.82700
H1386       H  0.39358519  0.79645544  0.17236908     0.13100
C1387       C  0.37912713  0.79865476  0.22081332     0.02400
N1388       N  0.42163619  0.81306079  0.25287081    -0.81300
H1389       H  0.46523359  0.81816624  0.22817037     0.17900
C1390       C  0.37681075  0.77905236  0.23842395    -0.26100
C1391       C  0.35316516  0.76985488  0.24529695     0.35900
C1392       C  0.33081322  0.78066904  0.23494699    -0.20100
C1393       C  0.33290999  0.80154154  0.21873060    -0.25400
C1394       C  0.35687779  0.81053624  0.21138408     0.27300
H1395       H  0.39360534  0.76965146  0.24573981     0.13100
N1396       N  0.35252158  0.74885904  0.26231818    -0.82700
H1397       H  0.31592341  0.80991273  0.21070833     0.17900
N1398       N  0.35874874  0.83117427  0.19384974    -0.81300
H1399       H  0.34082218  0.75372751  0.27745854     0.33500
H1400       H  0.34505201  0.73338160  0.25286011     0.38000
H1401       H  0.34077741  0.83760556  0.18846132     0.33500
H1402       H  0.36732914  0.84614570  0.20324411     0.30200
H1403       H  0.43342014  0.80006101  0.26220963     0.33500
H1404       H  0.42729479  0.83126342  0.25781060     0.30200
H1405       H  0.44949430  0.78595431  0.14515926     0.38100
H1406       H  0.42043109  0.79705482  0.13849698     0.33500
C1407       C  0.45540395  0.21065011  0.83834679    -0.20200
C1408       C  0.43777945  0.20917424  0.85838563     0.36000
C1409       C  0.41264978  0.21719246  0.85474228    -0.26200
C1410       C  0.40467665  0.22712426  0.83159108     0.02500
C1411       C  0.42245425  0.23030861  0.81205633     0.27300
C1412       C  0.44769755  0.22221696  0.81568167    -0.25300
N1413       N  0.44519730  0.19932356  0.88248749    -0.82700
H1414       H  0.39908398  0.21488487  0.86983712     0.13100
C1415       C  0.37726151  0.23096443  0.82682130     0.02400
N1416       N  0.41457848  0.24093612  0.78832199    -0.81300
H1417       H  0.46099904  0.22371026  0.80026191     0.17900
C1418       C  0.36648180  0.25537816  0.82703023    -0.26100
C1419       C  0.34158921  0.25968377  0.81868721     0.35900
C1420       C  0.32710712  0.23917924  0.80988225    -0.20100
C1421       C  0.33769709  0.21466011  0.81097852    -0.25400
C1422       C  0.36240560  0.21028982  0.81968426     0.27300
H1423       H  0.37789388  0.27131637  0.83247939     0.13100
N1424       N  0.33238979  0.28524317  0.81732928    -0.82700
H1425       H  0.32731913  0.19900072  0.80320867     0.17900
N1426       N  0.37290172  0.18503325  0.82020332    -0.81300
H1427       H  0.32862858  0.28956581  0.79846807     0.33500
H1428       H  0.31559395  0.28658116  0.82761025     0.38000
H1429       H  0.35940438  0.17190446  0.81469390     0.33500
H1430       H  0.38738160  0.18408202  0.80683074     0.30200
H1431       H  0.42992816  0.24204771  0.77599794     0.33500
H1432       H  0.40183187  0.22848327  0.78011205     0.30200
H1433       H  0.43391518  0.18377095  0.88658256     0.38100
H1434       H  0.44157134  0.21325579  0.89602908     0.33500
C1435       C  0.31113107  0.04971651  0.82376991    -0.20200
C1436       C  0.32497271  0.07036827  0.81470794     0.36000
C1437       C  0.31398164  0.09473393  0.81419854    -0.26200
C1438       C  0.28936864  0.09930833  0.82322911     0.02500
C1439       C  0.27526297  0.07850326  0.83208290     0.27300
C1440       C  0.28621556  0.05389919  0.83199986    -0.25300
N1441       N  0.35030393  0.06660232  0.80588275    -0.82700
H1442       H  0.32483827  0.11022765  0.80664352     0.13100
C1443       C  0.27858263  0.12575339  0.82193234     0.02400
N1444       N  0.25016604  0.08249534  0.84172768    -0.81300
H1445       H  0.27568981  0.03812031  0.83943321     0.17900
C1446       C  0.25553305  0.13020427  0.80949101    -0.26100
C1447       C  0.24744322  0.15491119  0.80331425     0.35900
C1448       C  0.26252309  0.17578216  0.80944278    -0.20100
C1449       C  0.28407455  0.17165039  0.82428998    -0.25400
C1450       C  0.29227883  0.14686977  0.83064845     0.27300
H1451       H  0.24458246  0.11439878  0.80285222     0.13100
N1452       N  0.22460327  0.15863081  0.78928644    -0.82700
H1453       H  0.29527979  0.18768011  0.82970812     0.17900
N1454       N  0.31499756  0.14301677  0.84504781    -0.81300
H1455       H  0.22610323  0.14820189  0.77261588     0.33500
H1456       H  0.20975340  0.15122482  0.79983093     0.38000
H1457       H  0.32297582  0.16037230  0.84973877     0.33500
H1458       H  0.30997081  0.13432955  0.86199608     0.30200
H1459       H  0.24240735  0.06536370  0.84752235     0.33500
H1460       H  0.25155875  0.09379551  0.85780950     0.30200
H1461       H  0.35110746  0.07268780  0.78714299     0.38100
H1462       H  0.36214218  0.07808429  0.81653362     0.33500
C1463       C  0.71379508  0.24905559  0.16466133    -0.20200
C1464       C  0.70100487  0.22658403  0.15854709     0.36000
C1465       C  0.69466160  0.22149950  0.13342659    -0.26200
C1466       C  0.70065342  0.23839912  0.11403210     0.02500
C1467       C  0.71214993  0.26154662  0.12006941     0.27300
C1468       C  0.71906781  0.26642193  0.14528643    -0.25300
N1469       N  0.69560516  0.20812908  0.17754994    -0.82700
H1470       H  0.68560118  0.20381029  0.12892130     0.13100
C1471       C  0.69502323  0.23094437  0.08762276     0.02400
N1472       N  0.71583780  0.28035444  0.10085118    -0.81300
H1473       H  0.72877032  0.28373814  0.14982777     0.17900
C1474       C  0.66979162  0.22863640  0.08019451    -0.26100
C1475       C  0.66351229  0.21851669  0.05655851     0.35900
C1476       C  0.68292757  0.21077283  0.03981866    -0.20100
C1477       C  0.70818996  0.21410029  0.04681345    -0.25400
C1478       C  0.71443062  0.22342160  0.07084287     0.27300
H1479       H  0.65494053  0.23406201  0.09324615     0.13100
N1480       N  0.63746299  0.21557555  0.04967927    -0.82700
H1481       H  0.72307661  0.20770108  0.03423747     0.17900
N1482       N  0.74032434  0.22396035  0.07878648    -0.81300
H1483       H  0.62555944  0.22185534  0.06416622     0.33500
H1484       H  0.63388784  0.22730860  0.03416061     0.38000
H1485       H  0.75230670  0.21771469  0.06437265     0.33500
H1486       H  0.74242957  0.21107136  0.09365112     0.30200
H1487       H  0.72437392  0.29632956  0.10842717     0.33500
H1488       H  0.72831124  0.27300895  0.08740091     0.30200
H1489       H  0.70464718  0.19112287  0.17262196     0.38100
H1490       H  0.67613788  0.20512804  0.17761316     0.33500
C1491       C  0.68039194  0.03824169  0.21244453    -0.20200
C1492       C  0.66006586  0.05235095  0.22282163     0.36000
C1493       C  0.66451075  0.07619945  0.23356135    -0.26200
C1494       C  0.68871859  0.08654058  0.23346766     0.02500
C1495       C  0.70910919  0.07233743  0.22335556     0.27300
C1496       C  0.70483664  0.04804157  0.21346680    -0.25300
N1497       N  0.63491413  0.04252712  0.22201825    -0.82700
H1498       H  0.64894166  0.08706826  0.24149521     0.13100
C1499       C  0.69240219  0.11273815  0.24283741     0.02400
N1500       N  0.73383018  0.08312813  0.22219446    -0.81300
H1501       H  0.72033337  0.03741103  0.20508439     0.17900
C1502       C  0.70647663  0.11657824  0.26483506    -0.26100
C1503       C  0.71320786  0.14106232  0.27238302     0.35900
C1504       C  0.70591233  0.16225103  0.25760357    -0.20100
C1505       C  0.69013510  0.15839818  0.23666448    -0.25400
C1506       C  0.68354351  0.13399794  0.22906774     0.27300
H1507       H  0.71295582  0.10040926  0.27576630     0.13100
N1508       N  0.72812445  0.14421118  0.29464541    -0.82700
H1509       H  0.68435559  0.17426080  0.22493466     0.17900
N1510       N  0.66912784  0.13130177  0.20641408    -0.81300
H1511       H  0.71830463  0.13645098  0.30983102     0.33500
H1512       H  0.74497871  0.13390439  0.29238790     0.38000
H1513       H  0.65233174  0.12215275  0.21077112     0.33500
H1514       H  0.67947086  0.12002907  0.19382194     0.30200
H1515       H  0.74674360  0.07035051  0.21415975     0.33500
H1516       H  0.73279979  0.09876469  0.21011844     0.30200
H1517       H  0.63473237  0.02615219  0.23308899     0.38100
H1518       H  0.62206490  0.05530013  0.23018745     0.33500
C1519       C  0.47338994  0.00397300  0.96105835    -0.20200
C1520       C  0.47901897  0.99280042  0.93738708     0.36000
C1521       C  0.46029730  0.99233919  0.91864999    -0.26200
C1522       C  0.43616197  0.00263385  0.92301468     0.02500
C1523       C  0.43067032  0.01384890  0.94641313     0.27300
C1524       C  0.44927535  0.01448808  0.96519939    -0.25300
N1525       N  0.50310332  0.98115077  0.93190556    -0.82700
H1526       H  0.46453045  0.98364708  0.90062755     0.13100
C1527       C  0.41664872  0.00151530  0.90306641     0.02400
N1528       N  0.40608639  0.02441298  0.95117319    -0.81300
H1529       H  0.44478317  0.02296024  0.98324667     0.17900
C1530       C  0.40073374  0.98060139  0.90178630    -0.26100
C1531       C  0.38097643  0.97982018  0.88409578     0.35900
C1532       C  0.37694241  0.00037129  0.86740172    -0.20100
C1533       C  0.39327347  0.02108850  0.86855407    -0.25400
C1534       C  0.41310093  0.02169944  0.88610625     0.27300
H1535       H  0.40335267  0.96503961  0.91491420     0.13100
N1536       N  0.36451741  0.95856626  0.88385333    -0.82700
H1537       H  0.39064579  0.03693694  0.85577909     0.17900
N1538       N  0.42952451  0.04295060  0.88684916    -0.81300
H1539       H  0.35634964  0.95693372  0.90171059     0.33500
H1540       H  0.37546172  0.94227456  0.88057907     0.38000
H1541       H  0.43797212  0.04472445  0.86913834     0.33500
H1542       H  0.41850231  0.05920011  0.89007097     0.30200
H1543       H  0.39855833  0.01518038  0.96685302     0.33500
H1544       H  0.40816751  0.04349639  0.95577849     0.30200
H1545       H  0.51537899  0.98187139  0.94726225     0.38100
H1546       H  0.51138866  0.99149792  0.91736655     0.33500
C1547       C  0.46961665  0.96694149  0.00068602    -0.20200
C1548       C  0.44752287  0.97136531  0.01476475     0.36000
C1549       C  0.42758909  0.95437963  0.01303898    -0.26200
C1550       C  0.42952986  0.93307426  0.99741514     0.02500
C1551       C  0.45175752  0.92878601  0.98321378     0.27300
C1552       C  0.47155059  0.94581294  0.98493981    -0.25300
N1553       N  0.44529398  0.99316225  0.03065299    -0.82700
H1554       H  0.41063464  0.95767401  0.02406720     0.13100
C1555       C  0.40902619  0.91453301  0.99760691     0.02400
N1556       N  0.45499330  0.90696091  0.96751071    -0.81300
H1557       H  0.48854845  0.94258512  0.97396632     0.17900
C1558       C  0.39466203  0.91082227  0.97580306    -0.26100
C1559       C  0.37630712  0.89202129  0.97498988     0.35900
C1560       C  0.37204175  0.87687400  0.99646592    -0.20100
C1561       C  0.38563440  0.88155408  0.01866304    -0.25400
C1562       C  0.40424243  0.90012077  0.01938042     0.27300
H1563       H  0.39789263  0.92241114  0.95926857     0.13100
N1564       N  0.36185465  0.88864791  0.95246160    -0.82700
H1565       H  0.38237173  0.87010884  0.03527868     0.17900
N1566       N  0.41862272  0.90414388  0.04196352    -0.81300
H1567       H  0.35258848  0.90576122  0.94831088     0.33500
H1568       H  0.37438423  0.88460720  0.93773231     0.38000
H1569       H  0.41255062  0.89214519  0.05636330     0.33500
H1570       H  0.43739820  0.89912378  0.03813363     0.30200
H1571       H  0.44123528  0.90746091  0.95341732     0.33500
H1572       H  0.45243928  0.89077902  0.97853369     0.30200
H1573       H  0.44178840  0.98693101  0.04901648     0.38100
H1574       H  0.42958077  0.00379146  0.02471428     0.33500
C1575       C  0.54786474  0.04152753  0.00503839    -0.20200
C1576       C  0.54437984  0.06306512  0.02058907     0.36000
C1577       C  0.56238402  0.08220982  0.02007742    -0.26200
C1578       C  0.58341810  0.08059897  0.00410080     0.02500
C1579       C  0.58722216  0.05881578  0.98927207     0.27300
C1580       C  0.56943862  0.03948799  0.98985413    -0.25300
N1581       N  0.52284027  0.06634853  0.03682707    -0.82700
H1582       H  0.55954502  0.09884884  0.03171032     0.13100
C1583       C  0.60097757  0.10208172  0.00276370     0.02400
N1584       N  0.60920031  0.05624593  0.97370739    -0.81300
H1585       H  0.57224881  0.02296376  0.97806213     0.17900
C1586       C  0.61374617  0.10969380  0.02453393    -0.26100
C1587       C  0.63086327  0.12969725  0.02374098     0.35900
C1588       C  0.63545410  0.14229755  0.00069225    -0.20100
C1589       C  0.62211366  0.13497622  0.97907941    -0.25400
C1590       C  0.60469907  0.11528774  0.98004033     0.27300
H1591       H  0.61068072  0.09980971  0.04216530     0.13100
N1592       N  0.64397828  0.13662329  0.04624803    -0.82700
H1593       H  0.62494282  0.14478831  0.96137317     0.17900
N1594       N  0.59036048  0.10910669  0.95805912    -0.81300
H1595       H  0.65391821  0.12070547  0.05285130     0.33500
H1596       H  0.63055323  0.14173134  0.05983479     0.38000
H1597       H  0.58018311  0.12527720  0.95250365     0.33500
H1598       H  0.60299926  0.10442980  0.94360674     0.30200
H1599       H  0.60323524  0.05375533  0.95510277     0.33500
H1600       H  0.61900841  0.03984988  0.97925795     0.30200
H1601       H  0.51054594  0.05117915  0.03566272     0.38100
H1602       H  0.51275700  0.08231870  0.03056634     0.33500
C1603       C  0.51109395  0.04324590  0.96477992    -0.20200
C1604       C  0.49558670  0.06511049  0.96757525     0.36000
C1605       C  0.49652162  0.08419381  0.94929893    -0.26200
C1606       C  0.51223760  0.08193859  0.92813231     0.02500
C1607       C  0.52778686  0.06025495  0.92534379     0.27300
C1608       C  0.52715583  0.04115709  0.94382050    -0.25300
N1609       N  0.47886111  0.06875617  0.98865879    -0.82700
H1610       H  0.48466255  0.10093707  0.95152334     0.13100
C1611       C  0.51136400  0.10221697  0.90877604     0.02400
N1612       N  0.54379067  0.05756674  0.90361213    -0.81300
H1613       H  0.53903588  0.02442475  0.94178705     0.17900
C1614       C  0.53281540  0.11676159  0.90410743    -0.26100
C1615       C  0.53182599  0.13740405  0.88727594     0.35900
C1616       C  0.50889694  0.14337875  0.87477046    -0.20100
C1617       C  0.48766169  0.12839236  0.87916784    -0.25400
C1618       C  0.48872649  0.10778788  0.89585021     0.27300
H1619       H  0.55014227  0.11240974  0.91417858     0.13100
N1620       N  0.55373530  0.15269884  0.88349713    -0.82700
H1621       H  0.47014524  0.13266728  0.86938999     0.17900
N1622       N  0.46691679  0.09239373  0.89976069    -0.81300
H1623       H  0.56899740  0.14564410  0.89399613     0.33500
H1624       H  0.54957678  0.17074501  0.89056724     0.38000
H1625       H  0.45175205  0.09893826  0.88880239     0.33500
H1626       H  0.47144059  0.07419605  0.89335254     0.30200
H1627       H  0.55406047  0.04054769  0.90446889     0.33500
H1628       H  0.53210131  0.05644409  0.88777352     0.30200
H1629       H  0.47952314  0.05350865  0.00112824     0.38100
H1630       H  0.46041509  0.06973085  0.98163734     0.33500
C1631       C  0.50770569  0.96320050  0.04001082    -0.20200
C1632       C  0.51900822  0.93908122  0.03584976     0.36000
C1633       C  0.51763367  0.92046146  0.05472292    -0.26200
C1634       C  0.50509462  0.92511687  0.07760093     0.02500
C1635       C  0.49414500  0.94920201  0.08180549     0.27300
C1636       C  0.49546091  0.96793866  0.06302496    -0.25300
N1637       N  0.53225028  0.93284224  0.01297838    -0.82700
H1638       H  0.52631618  0.90206534  0.05141556     0.13100
C1639       C  0.50409313  0.90466554  0.09697813     0.02400
N1640       N  0.48218274  0.95488413  0.10536350    -0.81300
H1641       H  0.48703292  0.98640515  0.06650835     0.17900
C1642       C  0.52666654  0.89472910  0.10696205    -0.26100
C1643       C  0.52665387  0.87494251  0.12483232     0.35900
C1644       C  0.50340403  0.86429049  0.13252972    -0.20100
C1645       C  0.48083452  0.87458147  0.12258338    -0.25400
C1646       C  0.48101954  0.89448092  0.10496736     0.27300
H1647       H  0.54442302  0.90269014  0.10093796     0.13100
N1648       N  0.55019312  0.86596629  0.13527057    -0.82700
H1649       H  0.46281465  0.86684583  0.12807037     0.17900
N1650       N  0.45770095  0.90374711  0.09460338    -0.81300
H1651       H  0.56541222  0.87535826  0.12713483     0.33500
H1652       H  0.55024206  0.87069024  0.15439738     0.38000
H1653       H  0.44860926  0.88851510  0.08618785     0.33500
H1654       H  0.44637694  0.91021040  0.10946464     0.30200
H1655       H  0.49141410  0.97025003  0.11340136     0.33500
H1656       H  0.46352493  0.96047272  0.10167411     0.30200
H1657       H  0.53248609  0.94804279  0.00038782     0.38100
H1658       H  0.52240835  0.91836594  0.00411631     0.33500
C1659       C  0.63584565  0.99769422  0.14244137    -0.20200
C1660       C  0.62678065  0.02111693  0.13262525     0.36000
C1661       C  0.60916567  0.02118548  0.11282613    -0.26200
C1662       C  0.60056799  0.99853519  0.10246477     0.02500
C1663       C  0.60956808  0.97531806  0.11205515     0.27300
C1664       C  0.62707158  0.97504700  0.13184419    -0.25300
N1665       N  0.63561768  0.04475103  0.14240230    -0.82700
H1666       H  0.60227631  0.03902359  0.10517643     0.13100
C1667       C  0.58190889  0.99948084  0.08175566     0.02400
N1668       N  0.60051102  0.95196777  0.10208304    -0.81300
H1669       H  0.63355769  0.95690903  0.13910074     0.17900
C1670       C  0.58818642  0.98917785  0.05816939    -0.26100
C1671       C  0.57078324  0.98996346  0.03825535     0.35900
C1672       C  0.54680572  0.00108320  0.04203291    -0.20100
C1673       C  0.54055358  0.01138891  0.06554014    -0.25400
C1674       C  0.55793442  0.01073292  0.08539408     0.27300
H1675       H  0.60667929  0.98064722  0.05519966     0.13100
N1676       N  0.57740473  0.97941335  0.01427485    -0.82700
H1677       H  0.52205058  0.01985937  0.06852487     0.17900
N1678       N  0.55106833  0.02112002  0.10938166    -0.81300
H1679       H  0.59351248  0.98857369  0.00776299     0.33500
H1680       H  0.58210084  0.96031225  0.01696016     0.38000
H1681       H  0.54630532  0.04021516  0.10676220     0.33500
H1682       H  0.53498185  0.01181799  0.11575081     0.30200
H1683       H  0.61603610  0.94144880  0.09553295     0.33500
H1684       H  0.59222599  0.94185142  0.11679808     0.30200
H1685       H  0.62642879  0.06002965  0.13362196     0.38100
H1686       H  0.65473122  0.04608783  0.13770702     0.33500
C1687       C  0.75177485  0.82725209  0.30240256    -0.20200
C1688       C  0.77474931  0.83322391  0.31460088     0.36000
C1689       C  0.77985821  0.85855903  0.32043596    -0.26200
C1690       C  0.76246910  0.87807023  0.31490171     0.02500
C1691       C  0.73920075  0.87200245  0.30384698     0.27300
C1692       C  0.73407186  0.84678834  0.29762418    -0.25300
N1693       N  0.79325766  0.81382585  0.32023312    -0.82700
H1694       H  0.79786831  0.86322845  0.32878235     0.13100
C1695       C  0.76981741  0.90472872  0.31948448     0.02400
N1696       N  0.72074110  0.89143395  0.29887149    -0.81300
H1697       H  0.71636003  0.84263573  0.28840080     0.17900
C1698       C  0.77009828  0.92192798  0.29929351    -0.26100
C1699       C  0.78083420  0.94593125  0.30183426     0.35900
C1700       C  0.79155907  0.95306157  0.32508668    -0.20100
C1701       C  0.78962199  0.93640286  0.34574126    -0.25400
C1702       C  0.77883989  0.91241886  0.34320383     0.27300
H1703       H  0.76297398  0.91633230  0.28107407     0.13100
N1704       N  0.78176693  0.96237742  0.28038676    -0.82700
H1705       H  0.79713624  0.94181623  0.36390224     0.17900
N1706       N  0.77746046  0.89561181  0.36449027    -0.81300
H1707       H  0.79154720  0.95295167  0.26599444     0.33500
H1708       H  0.76326442  0.96573166  0.27422268     0.38000
H1709       H  0.78504004  0.90404005  0.38054548     0.33500
H1710       H  0.75834898  0.89262458  0.36826705     0.30200
H1711       H  0.70423789  0.88690182  0.30858929     0.33500
H1712       H  0.71669005  0.89120488  0.27960558     0.30200
H1713       H  0.78561450  0.80214956  0.33411860     0.38100
H1714       H  0.80950304  0.82162373  0.32805587     0.33500
C1715       C  0.74401398  0.82326541  0.21692897    -0.20200
C1716       C  0.72492388  0.82688459  0.19869226     0.36000
C1717       C  0.71769566  0.85173359  0.19166291    -0.26200
C1718       C  0.72989199  0.87288696  0.20188001     0.02500
C1719       C  0.75081398  0.86887756  0.21782517     0.27300
C1720       C  0.75762204  0.84428985  0.22523008    -0.25300
N1721       N  0.71277975  0.80542268  0.18772417    -0.82700
H1722       H  0.70188036  0.85460111  0.17898555     0.13100
C1723       C  0.71960809  0.89897060  0.19744137     0.02400
N1724       N  0.76481634  0.88984734  0.22716116    -0.81300
H1725       H  0.77262448  0.84190786  0.23896519     0.17900
C1726       C  0.71387520  0.91439672  0.21830697    -0.26100
C1727       C  0.70324663  0.93877614  0.21534230     0.35900
C1728       C  0.69811137  0.94803019  0.19088091    -0.20100
C1729       C  0.70396932  0.93264363  0.16998300    -0.25400
C1730       C  0.71483332  0.90834636  0.17298346     0.27300
H1731       H  0.71711573  0.90708437  0.23710732     0.13100
N1732       N  0.69683542  0.95369148  0.23711621    -0.82700
H1733       H  0.70006767  0.93965076  0.15115622     0.17900
N1734       N  0.72109556  0.89322052  0.15131579    -0.81300
H1735       H  0.67716794  0.95565124  0.23763047     0.33500
H1736       H  0.70211849  0.94421897  0.25366029     0.38000
H1737       H  0.71630587  0.90282250  0.13470400     0.33500
H1738       H  0.74070343  0.89064269  0.15109233     0.30200
H1739       H  0.78361098  0.88744807  0.22152825     0.33500
H1740       H  0.76432746  0.88910438  0.24682778     0.30200
H1741       H  0.69921396  0.81130285  0.17455774     0.38100
H1742       H  0.72649607  0.79508194  0.17780685     0.33500
C1743       C  0.83245760  0.73146956  0.21303006    -0.20200
C1744       C  0.85343963  0.74778467  0.21415675     0.36000
C1745       C  0.87721512  0.73936393  0.20543984    -0.26200
C1746       C  0.88056510  0.71492714  0.19567136     0.02500
C1747       C  0.85941293  0.69934838  0.19267306     0.27300
C1748       C  0.83553076  0.70809012  0.20071136    -0.25300
N1749       N  0.85119859  0.77228907  0.22550228    -0.82700
H1750       H  0.89342522  0.75143975  0.20765253     0.13100
C1751       C  0.90649011  0.70469828  0.19144638     0.02400
N1752       N  0.86256446  0.67399926  0.18324171    -0.81300
H1753       H  0.81951999  0.69585292  0.19875060     0.17900
C1754       C  0.91965525  0.69406753  0.21192729    -0.26100
C1755       C  0.94346106  0.68232991  0.20872994     0.35900
C1756       C  0.95409716  0.68078313  0.18439735    -0.20100
C1757       C  0.94116334  0.69195621  0.16397580    -0.25400
C1758       C  0.91762622  0.70430068  0.16733337     0.27300
H1759       H  0.91110382  0.69451302  0.23043729     0.13100
N1760       N  0.95618109  0.67081954  0.22985609    -0.82700
H1761       H  0.94947021  0.69097146  0.14533324     0.17900
N1762       N  0.90525192  0.71675933  0.14651734    -0.81300
H1763       H  0.94510332  0.67236258  0.24610804     0.33500
H1764       H  0.97241507  0.68123452  0.23334224     0.38000
H1765       H  0.91621739  0.71515838  0.13020920     0.33500
H1766       H  0.88841300  0.70740495  0.14284966     0.30200
H1767       H  0.84530813  0.66465630  0.18315624     0.33500
H1768       H  0.86832057  0.67515325  0.16445816     0.30200
H1769       H  0.86379058  0.77303736  0.24064608     0.38100
H1770       H  0.85668143  0.78575000  0.21219498     0.33500
C1771       C  0.84133477  0.74082418  0.29618514    -0.20200
C1772       C  0.86251728  0.73211428  0.28224438     0.36000
C1773       C  0.88600782  0.74409417  0.28522945    -0.26200
C1774       C  0.88913129  0.76370799  0.30279856     0.02500
C1775       C  0.86863927  0.77027036  0.31869577     0.27300
C1776       C  0.84496152  0.75921074  0.31486311    -0.25300
N1777       N  0.85989415  0.71205405  0.26425172    -0.82700
H1778       H  0.90166115  0.73870497  0.27314622     0.13100
C1779       C  0.91315619  0.77839969  0.30360961     0.02400
N1780       N  0.87185431  0.78856984  0.33841441    -0.81300
H1781       H  0.82901811  0.76554532  0.32611976     0.17900
C1782       C  0.91168893  0.80497826  0.30259841    -0.26100
C1783       C  0.93323348  0.81985228  0.30545424     0.35900
C1784       C  0.95710536  0.80821922  0.30867566    -0.20100
C1785       C  0.95898943  0.78166322  0.30803821    -0.25400
C1786       C  0.93723115  0.76660188  0.30588708     0.27300
H1787       H  0.89352933  0.81434746  0.30001819     0.13100
N1788       N  0.93079509  0.84688249  0.30496256    -0.82700
H1789       H  0.97733058  0.77264122  0.31050403     0.17900
N1790       N  0.93945759  0.73948087  0.30685536    -0.81300
H1791       H  0.92264787  0.85216305  0.28775600     0.33500
H1792       H  0.91839619  0.85235765  0.31935440     0.38000
H1793       H  0.95838492  0.73383647  0.30854695     0.33500
H1794       H  0.93033283  0.73340594  0.32321082     0.30200
H1795       H  0.85498199  0.79142786  0.34831634     0.33500
H1796       H  0.88489569  0.78097992  0.35125317     0.30200
H1797       H  0.85570686  0.69558296  0.27427881     0.38100
H1798       H  0.87699904  0.70850186  0.25507917     0.33500
C1799       C  0.74814658  0.64891122  0.29037629    -0.20200
C1800       C  0.76302907  0.62668345  0.28685616     0.36000
C1801       C  0.75211658  0.60285758  0.29076191    -0.26200
C1802       C  0.72686153  0.60081130  0.29823286     0.02500
C1803       C  0.71221017  0.62281116  0.30241486     0.27300
C1804       C  0.72303035  0.64658200  0.29865646    -0.25300
N1805       N  0.78888652  0.62823229  0.27884015    -0.82700
H1806       H  0.76324718  0.58575550  0.28779523     0.13100
C1807       C  0.71555569  0.57553101  0.30094486     0.02400
N1808       N  0.68620442  0.62086564  0.30989048    -0.81300
H1809       H  0.71141066  0.66337389  0.30144911     0.17900
C1810       C  0.70977229  0.56651125  0.32505696    -0.26100
C1811       C  0.69733439  0.54342974  0.32829275     0.35900
C1812       C  0.69030733  0.52927778  0.30686433    -0.20100
C1813       C  0.69699361  0.53795065  0.28277020    -0.25400
C1814       C  0.70929996  0.56113113  0.27958757     0.27300
H1815       H  0.71478451  0.57768885  0.34136329     0.13100
N1816       N  0.69189888  0.53429507  0.35322504    -0.82700
H1817       H  0.69162252  0.52716694  0.26632447     0.17900
N1818       N  0.71482103  0.57050344  0.25477157    -0.81300
H1819       H  0.69819827  0.54701273  0.36684146     0.33500
H1820       H  0.70226218  0.51750321  0.35585880     0.38000
H1821       H  0.70909833  0.55762001  0.24105822     0.33500
H1822       H  0.70405537  0.58702056  0.25198712     0.30200
H1823       H  0.67804530  0.63883577  0.31231501     0.33500
H1824       H  0.67645691  0.61234823  0.29509930     0.30200
H1825       H  0.79901748  0.63654512  0.29348491     0.38100
H1826       H  0.79675904  0.61015978  0.27630973     0.33500
C1827       C  0.76749261  0.66216531  0.20911615    -0.20200
C1828       C  0.74908052  0.64711223  0.19728610     0.36000
C1829       C  0.75511016  0.62180555  0.19084223    -0.26200
C1830       C  0.77910475  0.61142153  0.19600260     0.02500
C1831       C  0.79788752  0.62681728  0.20632586     0.27300
C1832       C  0.79189247  0.65186080  0.21280245    -0.25300
N1833       N  0.72418750  0.65724016  0.19263523    -0.82700
H1834       H  0.74090678  0.60993384  0.18242868     0.13100
C1835       C  0.78477490  0.58438988  0.19085265     0.02400
N1836       N  0.82295773  0.61681837  0.21054796    -0.81300
H1837       H  0.80601287  0.66265282  0.22262807     0.17900
C1838       C  0.79179820  0.57704466  0.16650380    -0.26100
C1839       C  0.80180459  0.55268109  0.16185809     0.35900
C1840       C  0.80523195  0.53549906  0.18216229    -0.20100
C1841       C  0.79642463  0.54238457  0.20619720    -0.25400
C1842       C  0.78627696  0.56666693  0.21065611     0.27300
H1843       H  0.79032989  0.59068048  0.15127501     0.13100
N1844       N  0.80876011  0.54545737  0.13666193    -0.82700
H1845       H  0.79853499  0.52935696  0.22187702     0.17900
N1846       N  0.77835799  0.57364293  0.23552368    -0.81300
H1847       H  0.80515103  0.56027995  0.12401779     0.33500
H1848       H  0.79710119  0.53059700  0.13134071     0.38000
H1849       H  0.76447051  0.56101004  0.24122388     0.33500
H1850       H  0.79378682  0.57129574  0.24763477     0.30200
H1851       H  0.83480422  0.63088342  0.21740393     0.33500
H1852       H  0.82191849  0.60314594  0.22473664     0.30200
H1853       H  0.72593920  0.67207477  0.17971109     0.38100
H1854       H  0.71288181  0.64367404  0.18407027     0.33500
C1855       C  0.67267177  0.75875556  0.20996341    -0.20200
C1856       C  0.66084382  0.78263791  0.21438595     0.36000
C1857       C  0.63615831  0.78739884  0.20602974    -0.26200
C1858       C  0.62218290  0.76881455  0.19388616     0.02500
C1859       C  0.63382048  0.74514920  0.18866687     0.27300
C1860       C  0.65892142  0.74033525  0.19683022    -0.25300
N1861       N  0.67292503  0.80169467  0.22908025    -0.82700
H1862       H  0.62736944  0.80560151  0.21008583     0.13100
C1863       C  0.59506771  0.77460230  0.18826380     0.02400
N1864       N  0.61972731  0.72567493  0.17640826    -0.81300
H1865       H  0.66739169  0.72179939  0.19382966     0.17900
C1866       C  0.58724945  0.77804906  0.16324479    -0.26100
C1867       C  0.56293246  0.78765684  0.15753507     0.35900
C1868       C  0.54590518  0.79378661  0.17726836    -0.20100
C1869       C  0.55320953  0.78887195  0.20224105    -0.25400
C1870       C  0.57777362  0.77986250  0.20796187     0.27300
H1871       H  0.60059248  0.77445150  0.14815137     0.13100
N1872       N  0.55565575  0.79183450  0.13174065    -0.82700
H1873       H  0.54035871  0.79377160  0.21741333     0.17900
N1874       N  0.58579938  0.77753110  0.23375407    -0.81300
H1875       H  0.57033976  0.78665401  0.11953249     0.33500
H1876       H  0.54064554  0.77983322  0.12783380     0.38000
H1877       H  0.57082694  0.78170961  0.24599045     0.33500
H1878       H  0.59104094  0.75871377  0.23696929     0.30200
H1879       H  0.63061176  0.70907286  0.17498038     0.33500
H1880       H  0.61611354  0.73164808  0.15795912     0.30200
H1881       H  0.67326420  0.81838962  0.21849459     0.38100
H1882       H  0.66187776  0.80517736  0.24506955     0.33500
C1883       C  0.65877787  0.73831864  0.28577937    -0.20200
C1884       C  0.65172342  0.71340297  0.27968505     0.36000
C1885       C  0.62647696  0.70617777  0.28209218    -0.26200
C1886       C  0.60784470  0.72333680  0.29040164     0.02500
C1887       C  0.61470072  0.74839915  0.29624212     0.27300
C1888       C  0.64006691  0.75569130  0.29364417    -0.25300
N1889       N  0.66999545  0.69547916  0.27037190    -0.82700
H1890       H  0.62147394  0.68684365  0.27779980     0.13100
C1891       C  0.58178552  0.71404085  0.29466808     0.02400
N1892       N  0.59591064  0.76627234  0.30487080    -0.81300
H1893       H  0.64528493  0.77495286  0.29795167     0.17900
C1894       C  0.57155302  0.71553148  0.31900423    -0.26100
C1895       C  0.54860296  0.70395490  0.32490793     0.35900
C1896       C  0.53561547  0.69048332  0.30608679    -0.20100
C1897       C  0.54502048  0.69020060  0.28139842    -0.25400
C1898       C  0.56811871  0.70166941  0.27551052     0.27300
H1899       H  0.58204354  0.72489669  0.33373321     0.13100
N1900       N  0.53862562  0.70542721  0.35007766    -0.82700
H1901       H  0.53497572  0.67992208  0.26697164     0.17900
N1902       N  0.57812418  0.70011019  0.25038025    -0.81300
H1903       H  0.55052852  0.71585902  0.36170112     0.33500
H1904       H  0.52147369  0.71544002  0.34916911     0.38000
H1905       H  0.56612209  0.68978203  0.23875174     0.33500
H1906       H  0.57836998  0.71842030  0.24306512     0.30200
H1907       H  0.60400671  0.78384421  0.30836474     0.33500
H1908       H  0.58288413  0.76901256  0.29029168     0.30200
H1909       H  0.66419677  0.68961687  0.25249944     0.38100
H1910       H  0.67002668  0.67970686  0.28229054     0.33500
C1911       C  0.82621950  0.30055163  0.73815974    -0.20200
C1912       C  0.83121155  0.31607615  0.75925457     0.36000
C1913       C  0.85620218  0.32250367  0.76498065    -0.26200
C1914       C  0.87630657  0.31429843  0.74971517     0.02500
C1915       C  0.87092303  0.30184811  0.72689322     0.27300
C1916       C  0.84611889  0.29492083  0.72143055    -0.25300
N1917       N  0.81126568  0.32425173  0.77570349    -0.82700
H1918       H  0.86003410  0.33281269  0.78216700     0.13100
C1919       C  0.90259565  0.31686747  0.75912032     0.02400
N1920       N  0.89033246  0.29596069  0.70900981    -0.81300
H1921       H  0.84271232  0.28373867  0.70470701     0.17900
C1922       C  0.91613584  0.29504944  0.76666117    -0.26100
C1923       C  0.93976963  0.29680645  0.77856994     0.35900
C1924       C  0.95004753  0.32075266  0.78328964    -0.20100
C1925       C  0.93677346  0.34253487  0.77514088    -0.25400
C1926       C  0.91325714  0.34080819  0.76291678     0.27300
H1927       H  0.90781822  0.27659040  0.76423415     0.13100
N1928       N  0.95250099  0.27434352  0.78725613    -0.82700
H1929       H  0.94458454  0.36100775  0.77879567     0.17900
N1930       N  0.89986794  0.36323738  0.75482333    -0.81300
H1931       H  0.94039636  0.26483774  0.79949733     0.33500
H1932       H  0.95593792  0.26268267  0.77171553     0.38000
H1933       H  0.91021079  0.37938268  0.75908848     0.33500
H1934       H  0.89844525  0.36251248  0.73518929     0.30200
H1935       H  0.90399236  0.28468588  0.71784228     0.33500
H1936       H  0.89880791  0.31288799  0.70369299     0.30200
H1937       H  0.81124230  0.34402365  0.77629745     0.38100
H1938       H  0.81527909  0.31753530  0.79380410     0.33500
C1939       C  0.83615500  0.21184846  0.74816889    -0.20200
C1940       C  0.85763232  0.22008652  0.76165216     0.36000
C1941       C  0.88182453  0.21343595  0.75296991    -0.26200
C1942       C  0.88512023  0.19924184  0.73090705     0.02500
C1943       C  0.86371331  0.19098268  0.71751207     0.27300
C1944       C  0.83948015  0.19696831  0.72656623    -0.25300
N1945       N  0.85489084  0.23578562  0.78365558    -0.82700
H1946       H  0.89825962  0.21957397  0.76333276     0.13100
C1947       C  0.91108933  0.19319366  0.72200042     0.02400
N1948       N  0.86666737  0.17735505  0.69425017    -0.81300
H1949       H  0.82315498  0.19122283  0.71582799     0.17900
C1950       C  0.91792050  0.16797058  0.71709278    -0.26100
C1951       C  0.94163598  0.16173186  0.70694821     0.35900
C1952       C  0.95927699  0.18095827  0.70214175    -0.20100
C1953       C  0.95292575  0.20602898  0.70835976    -0.25400
C1954       C  0.92890090  0.21231769  0.71781289     0.27300
H1955       H  0.90458571  0.15303341  0.72072879     0.13100
N1956       N  0.94768608  0.13580346  0.70154581    -0.82700
H1957       H  0.96609470  0.22105134  0.70449043     0.17900
N1958       N  0.92220630  0.23831604  0.72173596    -0.81300
H1959       H  0.94599121  0.12542674  0.71824334     0.33500
H1960       H  0.93430869  0.12913381  0.68877603     0.38000
H1961       H  0.92453763  0.24776027  0.70458386     0.33500
H1962       H  0.93496514  0.24583313  0.73462876     0.30200
H1963       H  0.84906684  0.17273150  0.68674148     0.33500
H1964       H  0.87514416  0.18949077  0.68129116     0.30200
H1965       H  0.84604639  0.22506596  0.79758223     0.38100
H1966       H  0.87252181  0.24079102  0.79080719     0.33500
C1967       C  0.73825034  0.20985856  0.82324322    -0.20200
C1968       C  0.75673765  0.20696343  0.84231600     0.36000
C1969       C  0.74950216  0.20076683  0.86705279    -0.26200
C1970       C  0.72406583  0.19747502  0.87325752     0.02500
C1971       C  0.70568393  0.19942895  0.85423409     0.27300
C1972       C  0.71284781  0.20526561  0.82941688    -0.25300
N1973       N  0.78271293  0.21203455  0.83714717    -0.82700
H1974       H  0.76373452  0.19943842  0.88168351     0.13100
C1975       C  0.71651848  0.19343832  0.89989788     0.02400
N1976       N  0.67953112  0.19726224  0.86054281    -0.81300
H1977       H  0.69824902  0.20780341  0.81531522     0.17900
C1978       C  0.71741042  0.21358028  0.91705909    -0.26100
C1979       C  0.70799624  0.21103287  0.94176857     0.35900
C1980       C  0.69729302  0.18791224  0.94950151    -0.20100
C1981       C  0.69728034  0.16758160  0.93232084    -0.25400
C1982       C  0.70670932  0.17020012  0.90776327     0.27300
H1983       H  0.72452521  0.23167271  0.91089701     0.13100
N1984       N  0.70844854  0.23228552  0.95844871    -0.82700
H1985       H  0.68951411  0.14952483  0.93777265     0.17900
N1986       N  0.70597746  0.14929343  0.89065520    -0.81300
H1987       H  0.69849808  0.24724706  0.94993120     0.33500
H1988       H  0.72722033  0.23774969  0.96056113     0.38000
H1989       H  0.71614062  0.13420798  0.89868858     0.33500
H1990       H  0.68718175  0.14381743  0.88878648     0.30200
H1991       H  0.67077641  0.21467857  0.85667632     0.33500
H1992       H  0.67161948  0.18354264  0.84893056     0.30200
H1993       H  0.78836392  0.22682490  0.84882920     0.38100
H1994       H  0.79338622  0.19590493  0.84181290     0.33500
C1995       C  0.76719260  0.28604834  0.84373644    -0.20200
C1996       C  0.79247457  0.28794458  0.85256907     0.36000
C1997       C  0.79722725  0.28999984  0.87850269    -0.26200
C1998       C  0.77749542  0.28988410  0.89602627     0.02500
C1999       C  0.75245127  0.28783753  0.88756500     0.27300
C2000       C  0.74756905  0.28585978  0.86156508    -0.25300
N2001       N  0.81349156  0.28758659  0.83554533    -0.82700
H2002       H  0.81653856  0.29162801  0.88504439     0.13100
C2003       C  0.78372696  0.29298606  0.92302970     0.02400
N2004       N  0.73208958  0.28756733  0.90542442    -0.81300
H2005       H  0.72827665  0.28373229  0.85525687     0.17900
C2006       C  0.78847822  0.31735580  0.93194962    -0.26100
C2007       C  0.79947292  0.32100783  0.95569878     0.35900
C2008       C  0.80604722  0.29976015  0.97067059    -0.20100
C2009       C  0.79906870  0.27551930  0.96272625    -0.25400
C2010       C  0.78808196  0.27190714  0.93885456     0.27300
H2011       H  0.78470056  0.33348324  0.91980188     0.13100
N2012       N  0.80482600  0.34614941  0.96432205    -0.82700
H2013       H  0.80386084  0.25923626  0.97430874     0.17900
N2014       N  0.78279807  0.24687774  0.92997783    -0.81300
H2015       H  0.79904198  0.35962730  0.95098859     0.33500
H2016       H  0.79399206  0.34943755  0.98049151     0.38000
H2017       H  0.78748164  0.23340565  0.94371073     0.33500
H2018       H  0.76329627  0.24586817  0.92736822     0.30200
H2019       H  0.71481524  0.28541867  0.89619463     0.33500
H2020       H  0.73139060  0.30527825  0.91415943     0.30200
H2021       H  0.82532401  0.27231425  0.84040237     0.38100
H2022       H  0.82364596  0.30419503  0.83824029     0.33500
C2023       C  0.66622896  0.23189383  0.76422634    -0.20200
C2024       C  0.64936383  0.22115257  0.74670578     0.36000
C2025       C  0.62462175  0.21523021  0.75417247    -0.26200
C2026       C  0.61621314  0.22028923  0.77873598     0.02500
C2027       C  0.63305625  0.23053260  0.79629400     0.27300
C2028       C  0.65781294  0.23612938  0.78904029    -0.25300
N2029       N  0.65724235  0.21613391  0.72136421    -0.82700
H2030       H  0.61184876  0.20690368  0.74067657     0.13100
C2031       C  0.59032631  0.21343482  0.78667663     0.02400
N2032       N  0.62496093  0.23514977  0.82163446    -0.81300
H2033       H  0.67016301  0.24473671  0.80274968     0.17900
C2034       C  0.58440152  0.18783592  0.78918728    -0.26100
C2035       C  0.56174598  0.18042842  0.80067552     0.35900
C2036       C  0.54465373  0.19908961  0.80991718    -0.20100
C2037       C  0.54981784  0.22474794  0.80567276    -0.25400
C2038       C  0.57257735  0.23201955  0.79427087     0.27300
H2039       H  0.59799891  0.17358459  0.78311006     0.13100
N2040       N  0.55622881  0.15399896  0.80336642    -0.82700
H2041       H  0.53679979  0.23924039  0.81238348     0.17900
N2042       N  0.57797402  0.25829500  0.79099029    -0.81300
H2043       H  0.57078457  0.14278899  0.79581315     0.33500
H2044       H  0.54010111  0.15042470  0.79266111     0.38000
H2045       H  0.56365725  0.26641079  0.77992468     0.33500
H2046       H  0.57741445  0.26695195  0.80868454     0.30200
H2047       H  0.63622956  0.22413233  0.83365022     0.33500
H2048       H  0.62791453  0.25418884  0.82576980     0.30200
H2049       H  0.65508815  0.19681363  0.71791290     0.38100
H2050       H  0.64516504  0.22613160  0.70920514     0.33500
C2051       C  0.67513497  0.30796114  0.74756290    -0.20200
C2052       C  0.66717877  0.31630817  0.72349739     0.36000
C2053       C  0.64153066  0.32117726  0.71892129    -0.26200
C2054       C  0.62339293  0.31782910  0.73780775     0.02500
C2055       C  0.63111947  0.30999085  0.76202212     0.27300
C2056       C  0.65690968  0.30510239  0.76666891    -0.25300
N2057       N  0.68489127  0.31927455  0.70336002    -0.82700
H2058       H  0.63564143  0.32720948  0.70026030     0.13100
C2059       C  0.59648024  0.32272061  0.73143839     0.02400
N2060       N  0.61277125  0.30695397  0.78169319    -0.81300
H2061       H  0.66267706  0.29845811  0.78514991     0.17900
C2062       C  0.57957903  0.30254738  0.73013976    -0.26100
C2063       C  0.55508300  0.30600898  0.72006246     0.35900
C2064       C  0.54760074  0.33015941  0.71085016    -0.20100
C2065       C  0.56418924  0.35052637  0.71375236    -0.25400
C2066       C  0.58841598  0.34707333  0.72399152     0.27300
H2067       H  0.58592530  0.28384712  0.73598871     0.13100
N2068       N  0.53853896  0.28482212  0.71785884    -0.82700
H2069       H  0.55848771  0.36922076  0.70730661     0.17900
N2070       N  0.60525907  0.36805717  0.72615080    -0.81300
H2071       H  0.52341045  0.28799090  0.73016481     0.33500
H2072       H  0.54756367  0.26823597  0.72411504     0.38000
H2073       H  0.59658675  0.38471816  0.71962803     0.33500
H2074       H  0.60890978  0.37073306  0.74532144     0.30200
H2075       H  0.62150127  0.30081691  0.79833795     0.33500
H2076       H  0.60485563  0.32479341  0.78544341     0.30200
H2077       H  0.67962941  0.30738348  0.68859147     0.38100
H2078       H  0.68361517  0.33796937  0.69695057     0.33500
C2079       C  0.75574508  0.28718947  0.65332468    -0.20200
C2080       C  0.73983849  0.30830559  0.64789792     0.36000
C2081       C  0.73192429  0.31272203  0.62298274    -0.26200
C2082       C  0.74012613  0.29708427  0.60327455     0.02500
C2083       C  0.75839495  0.27789071  0.60820021     0.27300
C2084       C  0.76579666  0.27306562  0.63314355    -0.25300
N2085       N  0.73090935  0.32460962  0.66773047    -0.82700
H2086       H  0.71846595  0.32786231  0.61901655     0.13100
C2087       C  0.72755340  0.29992221  0.57845350     0.02400
N2088       N  0.76964604  0.26281382  0.58855911    -0.81300
H2089       H  0.77858553  0.25727957  0.63679202     0.17900
C2090       C  0.73370349  0.32028032  0.56275925    -0.26100
C2091       C  0.72066577  0.32453612  0.53999239     0.35900
C2092       C  0.70172364  0.30757974  0.53253858    -0.20100
C2093       C  0.69588832  0.28698245  0.54804006    -0.25400
C2094       C  0.70815485  0.28337578  0.57130913     0.27300
H2095       H  0.74828090  0.33318391  0.56862242     0.13100
N2096       N  0.72669708  0.34585714  0.52434637    -0.82700
H2097       H  0.68079305  0.27449992  0.54257509     0.17900
N2098       N  0.69979673  0.26416644  0.58850557    -0.81300
H2099       H  0.74164581  0.35592407  0.53211954     0.33500
H2100       H  0.71108987  0.35819538  0.52435987     0.38000
H2101       H  0.68548325  0.25349589  0.58036762     0.33500
H2102       H  0.71488144  0.25174376  0.59201871     0.30200
H2103       H  0.76497505  0.24397217  0.59189673     0.33500
H2104       H  0.76264306  0.26781351  0.57081469     0.30200
H2105       H  0.74660311  0.33367658  0.67528038     0.38100
H2106       H  0.71900907  0.33884657  0.66056837     0.33500
C2107       C  0.77986650  0.16748925  0.54148108    -0.20200
C2108       C  0.78345628  0.15106484  0.56245549     0.36000
C2109       C  0.77071829  0.15609849  0.58518131    -0.26200
C2110       C  0.75448178  0.17716775  0.58801066     0.02500
C2111       C  0.74864829  0.19168819  0.56630758     0.27300
C2112       C  0.76133426  0.18676062  0.54341844    -0.25300
N2113       N  0.80051673  0.12967799  0.56108684    -0.82700
H2114       H  0.77451693  0.14411682  0.60138427     0.13100
C2115       C  0.74820351  0.18559631  0.61439676     0.02400
N2116       N  0.73057013  0.21200161  0.56735946    -0.81300
H2117       H  0.75738798  0.19894680  0.52741354     0.17900
C2118       C  0.76821086  0.18642541  0.63167369    -0.26100
C2119       C  0.76482224  0.19422706  0.65654011     0.35900
C2120       C  0.74069987  0.20294888  0.66496906    -0.20100
C2121       C  0.72034585  0.20166501  0.64788273    -0.25400
C2122       C  0.72375522  0.19237794  0.62301442     0.27300
H2123       H  0.78715911  0.18123509  0.62567965     0.13100
N2124       N  0.78679771  0.19378245  0.67230801    -0.82700
H2125       H  0.70171475  0.20793414  0.65382575     0.17900
N2126       N  0.70230489  0.18929613  0.60697539    -0.81300
H2127       H  0.79062663  0.21213108  0.67844809     0.33500
H2128       H  0.78362858  0.18191985  0.68767142     0.38000
H2129       H  0.68995480  0.17687313  0.61586599     0.33500
H2130       H  0.69306872  0.20684366  0.60530502     0.30200
H2131       H  0.73910754  0.22830834  0.56048043     0.33500
H2132       H  0.71588626  0.20773479  0.55497519     0.30200
H2133       H  0.79282771  0.11678814  0.54839380     0.38100
H2134       H  0.80176394  0.12032750  0.57843148     0.33500
C2135       C  0.29630616  0.77655142  0.82458856    -0.20200
C2136       C  0.31014150  0.75815330  0.83859451     0.36000
C2137       C  0.31766993  0.76351119  0.86339127    -0.26200
C2138       C  0.31143858  0.78676011  0.87467150     0.02500
C2139       C  0.29881656  0.80555369  0.86031964     0.27300
C2140       C  0.29141190  0.80030379  0.83561130    -0.25300
N2141       N  0.31556128  0.73345132  0.82874949    -0.82700
H2142       H  0.32774042  0.74916364  0.87419445     0.13100
C2143       C  0.31845013  0.79162947  0.90126200     0.02400
N2144       N  0.29294362  0.83001734  0.87056214    -0.81300
H2145       H  0.28076470  0.81459457  0.82525714     0.17900
C2146       C  0.34222134  0.80150935  0.90635848    -0.26100
C2147       C  0.34842290  0.80988933  0.93058915     0.35900
C2148       C  0.33032249  0.80892434  0.95022047    -0.20100
C2149       C  0.30716516  0.79714978  0.94550614    -0.25400
C2150       C  0.30106504  0.78841637  0.92115875     0.27300
H2151       H  0.35582063  0.80342686  0.89123148     0.13100
N2152       N  0.37317897  0.81948793  0.93508486    -0.82700
H2153       H  0.29335364  0.79579496  0.96048708     0.17900
N2154       N  0.27728881  0.77649320  0.91651013    -0.81300
H2155       H  0.38635565  0.80528150  0.93057343     0.33500
H2156       H  0.37602215  0.83475752  0.92289813     0.38000
H2157       H  0.26687308  0.77515670  0.93318761     0.33500
H2158       H  0.26679210  0.78811013  0.90433967     0.30200
H2159       H  0.30979979  0.83840189  0.87614015     0.33500
H2160       H  0.28160740  0.82774511  0.88649246     0.30200
H2161       H  0.32627956  0.73541282  0.81234438     0.38100
H2162       H  0.29853457  0.72478557  0.82422559     0.33500
C2163       C  0.20974585  0.73134564  0.82795180    -0.20200
C2164       C  0.19013504  0.74555297  0.83967789     0.36000
C2165       C  0.18158578  0.73843392  0.86369991    -0.26200
C2166       C  0.19227898  0.71750032  0.87630734     0.02500
C2167       C  0.21103391  0.70276032  0.86437615     0.27300
C2168       C  0.21989716  0.71011122  0.84070664    -0.25300
N2169       N  0.17940970  0.76785504  0.82835725    -0.82700
H2170       H  0.16696105  0.74964239  0.87285422     0.13100
C2171       C  0.18387105  0.71068840  0.90197064     0.02400
N2172       N  0.22116573  0.68046841  0.87653088    -0.81300
H2173       H  0.23511668  0.69914972  0.83223855     0.17900
C2174       C  0.16032921  0.69954450  0.90511993    -0.26100
C2175       C  0.15335314  0.68893313  0.92836705     0.35900
C2176       C  0.17055426  0.68936693  0.94894711    -0.20100
C2177       C  0.19354328  0.70201502  0.94595395    -0.25400
C2178       C  0.20034320  0.71248556  0.92265552     0.27300
H2179       H  0.14774535  0.69828382  0.88907827     0.13100
N2180       N  0.12905722  0.67739617  0.93086830    -0.82700
H2181       H  0.20687409  0.70286549  0.96140083     0.17900
N2182       N  0.22433215  0.72433339  0.91979341    -0.81300
H2183       H  0.11915381  0.67811171  0.91382392     0.33500
H2184       H  0.11857626  0.68818405  0.94375159     0.38000
H2185       H  0.22525168  0.73919926  0.93271992     0.33500
H2186       H  0.23842869  0.71107222  0.92444016     0.30200
H2187       H  0.23503096  0.67182717  0.86531227     0.33500
H2188       H  0.20652240  0.66750749  0.87816570     0.30200
H2189       H  0.17124879  0.76288350  0.81117009     0.38100
H2190       H  0.19384555  0.78073445  0.82505783     0.33500
C2191       C  0.19702080  0.82867751  0.72741508    -0.20200
C2192       C  0.18931934  0.84383225  0.74803709     0.36000
C2193       C  0.18236384  0.86934930  0.74385369    -0.26200
C2194       C  0.18297063  0.87975248  0.71955219     0.02500
C2195       C  0.18893608  0.86420659  0.69882116     0.27300
C2196       C  0.19608746  0.83889048  0.70298690    -0.25300
N2197       N  0.19099040  0.83404811  0.77328474    -0.82700
H2198       H  0.17761080  0.88146802  0.75965619     0.13100
C2199       C  0.17872180  0.90722106  0.71580390     0.02400
N2200       N  0.18899988  0.87461662  0.67376133    -0.81300
H2201       H  0.20259982  0.82755834  0.68725322     0.17900
C2202       C  0.19951021  0.92339055  0.71489204    -0.26100
C2203       C  0.19663078  0.94867229  0.70685179     0.35900
C2204       C  0.17253935  0.95795859  0.69982819    -0.20100
C2205       C  0.15160272  0.94201017  0.70233520    -0.25400
C2206       C  0.15457000  0.91676120  0.71003423     0.27300
H2207       H  0.21822635  0.91596883  0.71913223     0.13100
N2208       N  0.21840837  0.96418316  0.70417619    -0.82700
H2209       H  0.13293417  0.94879155  0.69701440     0.17900
N2210       N  0.13322702  0.90044695  0.71074232    -0.81300
H2211       H  0.23091146  0.95517907  0.69172751     0.33500
H2212       H  0.22724670  0.96528875  0.72174918     0.38000
H2213       H  0.11992648  0.90830043  0.72313178     0.33500
H2214       H  0.12519949  0.90015064  0.69274704     0.30200
H2215       H  0.19438756  0.86081005  0.66064544     0.33500
H2216       H  0.17042679  0.87990700  0.66933384     0.30200
H2217       H  0.17759625  0.81981726  0.77501777     0.38100
H2218       H  0.18600078  0.84803069  0.78635503     0.33500
C2219       C  0.28842547  0.83665099  0.75513563    -0.20200
C2220       C  0.27525855  0.85911516  0.74842389     0.36000
C2221       C  0.28334734  0.88267474  0.75725559    -0.26200
C2222       C  0.30462615  0.88461448  0.77281149     0.02500
C2223       C  0.31893596  0.86232589  0.77818472     0.27300
C2224       C  0.31057730  0.83853270  0.76945321    -0.25300
N2225       N  0.25283627  0.85795843  0.73342407    -0.82700
H2226       H  0.27206568  0.89940680  0.75296052     0.13100
C2227       C  0.31026494  0.90960838  0.78494201     0.02400
N2228       N  0.34154433  0.86388839  0.79302183    -0.81300
H2229       H  0.32055810  0.82136692  0.77500638     0.17900
C2230       C  0.31244354  0.91086996  0.81130548    -0.26100
C2231       C  0.31697893  0.93391431  0.82373057     0.35900
C2232       C  0.31931395  0.95647116  0.80961983    -0.20100
C2233       C  0.31627175  0.95549306  0.78334101    -0.25400
C2234       C  0.31200281  0.93231888  0.77083777     0.27300
H2235       H  0.31028957  0.89375900  0.82233229     0.13100
N2236       N  0.31899317  0.93454384  0.85073983    -0.82700
H2237       H  0.31821239  0.97271263  0.77243764     0.17900
N2238       N  0.30994776  0.93170228  0.74383818    -0.81300
H2239       H  0.31689219  0.91643358  0.85835967     0.33500
H2240       H  0.30394534  0.94558488  0.85755028     0.38000
H2241       H  0.31162351  0.94989380  0.73628166     0.33500
H2242       H  0.32521350  0.92101649  0.73697311     0.30200
H2243       H  0.34978685  0.84594172  0.79540417     0.33500
H2244       H  0.35445137  0.87464327  0.78282884     0.30200
H2245       H  0.23808543  0.86629129  0.74369320     0.38100
H2246       H  0.25555960  0.86886824  0.71722147     0.33500
C2247       C  0.32167691  0.70261331  0.54014471    -0.20200
C2248       C  0.29770273  0.71327517  0.54579263     0.36000
C2249       C  0.29423660  0.72751990  0.56791388    -0.26200
C2250       C  0.31424347  0.73150640  0.58472254     0.02500
C2251       C  0.33848099  0.72183825  0.57864772     0.27300
C2252       C  0.34189472  0.70735573  0.55660028    -0.25300
N2253       N  0.27646258  0.70871261  0.52981941    -0.82700
H2254       H  0.27547207  0.73449097  0.57257125     0.13100
C2255       C  0.30876140  0.74285068  0.60991975     0.02400
N2256       N  0.35944907  0.72650553  0.59511300    -0.81300
H2257       H  0.36046263  0.69963155  0.55232040     0.17900
C2258       C  0.31434235  0.72853146  0.63149544    -0.26100
C2259       C  0.30630695  0.73640121  0.65542255     0.35900
C2260       C  0.29190312  0.75893836  0.65818063    -0.20100
C2261       C  0.28778204  0.77424004  0.63678032    -0.25400
C2262       C  0.29626021  0.76648814  0.61269285     0.27300
H2263       H  0.32410062  0.71045109  0.62968812     0.13100
N2264       N  0.31239506  0.72097685  0.67681877    -0.82700
H2265       H  0.27688966  0.79165418  0.63860342     0.17900
N2266       N  0.29191084  0.78226864  0.59100314    -0.81300
H2267       H  0.33206016  0.71946910  0.67809301     0.33500
H2268       H  0.30552437  0.70292264  0.67332387     0.38000
H2269       H  0.28272821  0.79910972  0.59623226     0.33500
H2270       H  0.30953464  0.78733753  0.58388696     0.30200
H2271       H  0.37596133  0.71804800  0.58807034     0.33500
H2272       H  0.36241474  0.74602196  0.59521462     0.30200
H2273       H  0.26913873  0.72621437  0.52388395     0.38100
H2274       H  0.26262021  0.69976248  0.54052948     0.33500
C2275       C  0.20892746  0.75015379  0.65726101    -0.20200
C2276       C  0.20993046  0.73321049  0.63665587     0.36000
C2277       C  0.20235331  0.74150836  0.61248294    -0.26200
C2278       C  0.19389540  0.76651076  0.60841789     0.02500
C2279       C  0.19218058  0.78314452  0.62915975     0.27300
C2280       C  0.19927785  0.77474515  0.65314525    -0.25300
N2281       N  0.21962021  0.70797162  0.63984953    -0.82700
H2282       H  0.20385842  0.72862151  0.59667356     0.13100
C2283       C  0.18879236  0.77584924  0.58239729     0.02400
N2284       N  0.18469944  0.80915969  0.62621105    -0.81300
H2285       H  0.19828779  0.78808187  0.66854802     0.17900
C2286       C  0.16420817  0.78340697  0.57568334    -0.26100
C2287       C  0.15931487  0.79598281  0.55275525     0.35900
C2288       C  0.17947038  0.80097238  0.53607168    -0.20100
C2289       C  0.20379630  0.79181243  0.54206533    -0.25400
C2290       C  0.20869510  0.77952030  0.56516711     0.27300
H2291       H  0.14888435  0.78008468  0.58875152     0.13100
N2292       N  0.13397831  0.80379308  0.54643243    -0.82700
H2293       H  0.21927753  0.79532050  0.52923575     0.17900
N2294       N  0.23393176  0.77152776  0.57160469    -0.81300
H2295       H  0.12142733  0.79886252  0.56077986     0.33500
H2296       H  0.12862949  0.79367560  0.53043598     0.38000
H2297       H  0.24644826  0.77568053  0.55698490     0.33500
H2298       H  0.23953374  0.78216476  0.58716598     0.30200
H2299       H  0.16621333  0.81001275  0.61939164     0.33500
H2300       H  0.19664302  0.81758605  0.61304960     0.30200
H2301       H  0.23517406  0.70560672  0.62790015     0.38100
H2302       H  0.20567698  0.69541691  0.63411905     0.33500
C2303       C  0.29790040  0.67688875  0.72498020    -0.20200
C2304       C  0.31394464  0.66475447  0.74273587     0.36000
C2305       C  0.32203526  0.63949803  0.73840659    -0.26200
C2306       C  0.31408296  0.62627730  0.71694067     0.02500
C2307       C  0.29872875  0.63870812  0.69902450     0.27300
C2308       C  0.29077532  0.66354735  0.70323023    -0.25300
N2309       N  0.32098943  0.67752184  0.76550882    -0.82700
H2310       H  0.33403699  0.62989048  0.75203045     0.13100
C2311       C  0.32192311  0.59958585  0.71274373     0.07200
N2312       N  0.29048632  0.62629266  0.67655208    -0.81300
H2313       H  0.27802457  0.67219120  0.68963110     0.17900
C2314       C  0.30584154  0.58021135  0.72066564    -0.26100
C2315       C  0.30963357  0.55501822  0.71267073     0.35900
C2316       C  0.32992914  0.54895360  0.69636163    -0.20100
C2317       C  0.34668348  0.56841515  0.68966422    -0.25400
C2318       C  0.34290843  0.59345939  0.69744689     0.27300
H2319       H  0.28956440  0.58488104  0.73223156     0.13100
N2320       N  0.29240667  0.53598685  0.72066031    -0.82700
H2321       H  0.36277366  0.56446230  0.67762781     0.17900
N2322       N  0.36042935  0.61217363  0.68886709    -0.81300
H2323       H  0.29258601  0.53538480  0.74035546     0.33500
H2324       H  0.27425754  0.54146582  0.71488320     0.38000
H2325       H  0.35856878  0.61367173  0.66929956     0.33500
H2326       H  0.35641736  0.63004009  0.69631705     0.30200
H2327       H  0.30639747  0.62057052  0.66626831     0.33500
H2328       H  0.28042960  0.61020831  0.68167978     0.30200
H2329       H  0.30462909  0.68016406  0.77627981     0.38100
H2330       H  0.33314662  0.66608292  0.77626700     0.33500
C2331       C  0.17520348  0.55250791  0.80032987    -0.20200
C2332       C  0.19886026  0.55836223  0.78941171     0.36000
C2333       C  0.20311081  0.58306723  0.78031542    -0.26200
C2334       C  0.18452198  0.60217520  0.78221356     0.02500
C2335       C  0.16087008  0.59638028  0.79266030     0.27300
C2336       C  0.15644047  0.57170426  0.80143060    -0.25300
N2337       N  0.21871767  0.53957272  0.78808755    -0.82700
H2338       H  0.22132644  0.58770586  0.77238200     0.13100
C2339       C  0.19071321  0.62849031  0.77462743     0.02400
N2340       N  0.14125484  0.61545451  0.79392096    -0.81300
H2341       H  0.13810819  0.56755374  0.80933901     0.17900
C2342       C  0.19279441  0.63501012  0.74901177    -0.26100
C2343       C  0.20116384  0.65922372  0.74159683     0.35900
C2344       C  0.20687893  0.67733761  0.76022432    -0.20100
C2345       C  0.20381739  0.67087990  0.78564793    -0.25400
C2346       C  0.19620272  0.64671042  0.79302113     0.27300
H2347       H  0.18886747  0.62085377  0.73485757     0.13100
N2348       N  0.20518256  0.66493449  0.71542370    -0.82700
H2349       H  0.20878356  0.68430910  0.79994946     0.17900
N2350       N  0.19535709  0.64031261  0.81926194    -0.81300
H2351       H  0.19995579  0.64965223  0.70418578     0.33500
H2352       H  0.22458232  0.66718162  0.71274153     0.38000
H2353       H  0.21335335  0.64294111  0.82683574     0.33500
H2354       H  0.18296864  0.65301640  0.82818379     0.30200
H2355       H  0.12465049  0.60786098  0.80119918     0.33500
H2356       H  0.14689571  0.62925502  0.80671408     0.30200
H2357       H  0.22433928  0.53543290  0.80654957     0.38100
H2358       H  0.23455732  0.54680456  0.77895595     0.33500
loop_ 
_geom_bond_atom_site_label_1 
_geom_bond_atom_site_label_2 
_geom_bond_distance 
_geom_bond_site_symmetry_2 
_ccdc_geom_bond_type 
O1            C9   1.279       .  A
O1          Co21   1.993       .  S
O2           C10   1.271       .  A
O2          Co22   1.989       .  S
O3           C11   1.269       .  A
O3          Co23   1.992       .  S
O4           C12   1.296       .  A
O4          Co24   2.120       .  S
O5           C11   1.271       .  A
O5          Co22   1.989       .  S
O6           C12   1.268       .  A
O6          Co21   1.907       .  S
O7           C10   1.268       .  A
O7          Co24   1.986       .  S
O8            C9   1.277       .  A
O8          Co23   2.013       .  S
C9         C2344   1.482       .  S
C10        C2191   1.476       .  S
C11        C2163   1.487       .  S
C12        C2275   1.493       .  S
O13          C26   1.298       .  A
O13         Co21   2.121       .  S
O14          C27   1.276       .  A
O14         Co22   2.007       .  S
O15          C28   1.271       .  A
O15         Co23   1.999       .  S
O16          C29   1.279       .  A
O16         Co24   2.009       .  S
O17          C29   1.272       .  A
O17         Co22   2.006       .  S
O18          C28   1.261       .  A
O18         Co21   1.970       .  S
O19          C26   1.273       .  A
O19         Co24   1.906       .  S
O20          C27   1.275       .  A
O20         Co23   1.986       .  S
Co21         O25   1.998       .  S
Co22         O25   2.037       .  S
Co23         O25   2.041       .  S
Co24         O25   2.003       .  S
C26        C2260   1.492       .  S
C27        C2135   1.484       .  S
C28        C2303   1.486       .  S
C29        C2219   1.488       .  S
O30          C38   1.283       .  A
O30         Co50   2.062       .  S
O31          C39   1.269       .  A
O31         Co51   2.027       .  S
O32          C40   1.263       .  A
O32         Co52   1.989       .  S
O33          C41   1.300       .  A
O33         Co53   2.048       .  S
O34          C40   1.243       .  A
O34         Co51   1.940       .  S
O35          C41   1.278       .  A
O35         Co50   2.007       .  S
O36          C39   1.266       .  A
O36         Co53   1.970       .  S
O37          C38   1.264       .  A
O37         Co52   1.963       .  S
C38        C2120   1.503       .  S
C39        C1967   1.488       .  S
C40        C1939   1.475       .  S
C41        C2023   1.489       .  S
O42          C55   1.248       .  A
O42         Co50   1.963       .  S
O43          C56   1.263       .  A
O43         Co51   1.946       .  S
O44          C57   1.258       .  A
O44         Co52   2.014       .  S
O45          C58   1.270       .  A
O45         Co53   1.972       .  S
O46          C58   1.267       .  A
O46         Co51   2.008       .  S
O47          C57   1.248       .  A
O47         Co50   1.960       .  S
O48          C55   1.247       .  A
O48         Co53   1.985       .  S
O49          C56   1.280       .  A
O49         Co52   2.031       .  S
Co50         O54   2.048       .  S
Co51         O54   2.080       .  S
Co52         O54   2.093       .  S
Co53         O54   2.023       .  S
C55        C2051   1.486       .  S
C56        C1911   1.488       .  S
C57        C2079   1.490       .  S
C58        C1995   1.495       .  S
O59          C67   1.270       .  A
O59         Co79   2.037       .  S
O60          C68   1.276       .  A
O60         Co80   2.013       .  S
O61          C69   1.294       .  A
O61         Co81   2.042       .  S
O62          C70   1.269       .  A
O62         Co82   1.972       .  S
O63          C69   1.274       .  A
O63         Co80   1.998       .  S
O64          C70   1.265       .  A
O64         Co79   2.022       .  S
O65          C68   1.296       .  A
O65         Co82   2.040       .  S
O66          C67   1.270       .  A
O66         Co81   1.974       .  S
C67        C1855   1.498       .  S
C68        C1743   1.496       .  S
C69        C1715   1.483       .  S
C70        C1827   1.489       .  S
O71          C84   1.288       .  A
O71         Co79   2.050       .  S
O72          C85   1.248       .  A
O72         Co80   1.977       .  S
O73          C86   1.265       .  A
O73         Co81   1.927       .  S
O74          C87   1.247       .  A
O74         Co82   2.002       .  S
O75          C87   1.249       .  A
O75         Co80   1.979       .  S
O76          C86   1.286       .  A
O76         Co79   2.044       .  S
O77          C84   1.267       .  A
O77         Co82   1.919       .  S
O78          C85   1.247       .  A
O78         Co81   1.986       .  S
Co79         O83   2.227       .  S
Co80         O83   2.083       .  S
Co81         O83   1.966       .  S
Co82         O83   1.964       .  S
C84        C1799   1.488       .  S
C85        C1687   1.487       .  S
C86        C1883   1.484       .  S
C87        C1771   1.493       .  S
C88        C1672   1.480       .  S
C88          C89   1.411   1_545  A
C88          C93   1.414       .  A
C89        C1631   1.496       .  S
C89          C90   1.412       .  A
C90        C1547   1.474       .  S
C90          C91   1.413   1_564  A
C91        C1519   1.491       .  S
C91          C92   1.410       .  A
C92        C1603   1.487       .  S
C92          C93   1.413   1_556  A
C93        C1575   1.483       .  S
C94        C1728   1.487       .  S
C94          N95   1.365       .  A
C94          N99   1.358       .  A
N95          C96   1.364   1_565  A
C96        C1491   1.481       .  S
C96          N97   1.357       .  A
N97          C98   1.356   1_545  A
C98        C1659   1.488       .  S
C98          N99   1.356       .  A
C100       C1980   1.495       .  S
C100        N101   1.360       .  A
C100        N105   1.367       .  A
N101        C102   1.356       .  A
C102       C1588   1.482   1_556  S
C102        N103   1.353   1_556  A
N103        C104   1.356       .  A
C104       C1476   1.484       .  S
C104        N105   1.366   1_554  A
C106       C2232   1.493       .  S
C106        N107   1.361       .  A
C106        N111   1.368   1_565  A
N107        C108   1.358   1_565  A
C108       C1532   1.488       .  S
C108        N109   1.357       .  A
N109        C110   1.358       .  A
C110       C1435   1.487       .  S
C110        N111   1.367       .  A
C112       C2036   1.487       .  S
C112        N113   1.360       .  A
C112        N117   1.366       .  A
N113        C114   1.355       .  A
C114       C1616   1.483       .  S
C114        N115   1.355       .  A
N115        C116   1.357       .  A
C116       C1407   1.494       .  S
C116        N117   1.366       .  A
C118       C1868   1.491       .  S
C118        N119   1.359       .  A
C118        N123   1.367       .  A
N119        C120   1.357       .  A
C120       C1644   1.498       .  S
C120        N121   1.360       .  A
N121        C122   1.361       .  A
C122       C1379   1.487       .  S
C122        N123   1.367       .  A
C124       C2148   1.491       .  S
C124        N125   1.368       .  A
C124        N129   1.357       .  A
N125        C126   1.368   1_556  A
C126       C1364   1.489       .  S
C126        N127   1.356       .  A
N127        C128   1.351   1_554  A
C128       C1560   1.477       .  S
C128        N129   1.352       .  A
C130       C1211   1.482       .  S
C130        C131   1.416       .  A
C130        C135   1.417   1_456  A
C131       C1183   1.494       .  S
C131        C132   1.411   1_455  A
C132       C1323   1.480       .  S
C132        C133   1.410       .  A
C133       C1295   1.485       .  S
C133        C134   1.411   1_556  A
C134       C1267   1.485       .  S
C134        C135   1.414       .  A
C135       C1239   1.495       .  S
C136       C2176   1.492       .  S
C136        N137   1.358       .  A
C136        N141   1.366       .  A
N137        C138   1.353       .  A
C138       C1224   1.471       .  S
C138        N139   1.351   1_556  A
N139        C140   1.355       .  A
C140       C1155   1.487       .  S
C140        N141   1.364   1_554  A
C142       C2331   1.500       .  S
C142        N143   1.366       .  A
C142        N147   1.361       .  A
N143        C144   1.364       .  A
C144       C1127   1.482       .  S
C144        N145   1.358       .  A
N145        C146   1.357       .  A
C146       C1196   1.488       .  S
C146        N147   1.358       .  A
C148       C1756   1.483       .  S
C148        N149   1.363       .  A
C148        N153   1.358       .  A
N149        C150   1.364   1_655  A
C150       C1099   1.502       .  S
C150        N151   1.361       .  A
N151        C152   1.358   1_455  A
C152       C1252   1.488       .  S
C152        N153   1.358       .  A
C154       C1071   1.482       .  S
C154        N155   1.358       .  A
C154        N159   1.363       .  A
N155        C156   1.356       .  A
C156       C1280   1.483       .  S
C156        N157   1.356       .  A
N157        C158   1.359       .  A
C158       C1840   1.487       .  S
C158        N159   1.363       .  A
C160       C1043   1.492       .  S
C160        N161   1.367   1_455  A
C160        N165   1.355       .  A
N161        C162   1.369       .  A
C162       C1924   1.484       .  S
C162        N163   1.360       .  A
N163        C164   1.355       .  A
C164       C1336   1.483       .  S
C164        N165   1.352   1_655  A
C166       C1015   1.477       .  S
C166        N167   1.363       .  A
C166        N171   1.361       .  A
N167        C168   1.360   1_554  A
C168       C2008   1.480       .  S
C168        N169   1.355       .  A
N169        C170   1.354   1_556  A
C170       C1308   1.479       .  S
C170        N171   1.359       .  A
C172        C987   1.486       .  S
C172        C173   1.411       .  A
C172        C177   1.412       .  A
C173        C959   1.486       .  S
C173        C174   1.414       .  A
C174        C931   1.491       .  S
C174        C175   1.417       .  A
C175        C916   1.485       .  S
C175        C176   1.415       .  A
C176        C847   1.491       .  S
C176        C177   1.411       .  A
C177        C875   1.484       .  S
C178        C832   1.489       .  S
C178        N179   1.358       .  A
C178        N183   1.367       .  A
N179        C180   1.355       .  A
C180       C1000   1.481       .  S
C180        N181   1.355       .  A
N181        C182   1.360       .  A
C182       C2064   1.493       .  S
C182        N183   1.366       .  A
C184        C804   1.486       .  S
C184        N185   1.361       .  A
C184        N189   1.360       .  A
N185        C186   1.361       .  A
C186       C2247   1.493       .  S
C186        N187   1.361       .  A
N187        C188   1.361       .  A
C188        C860   1.492       .  S
C188        N189   1.362       .  A
C190        C763   1.481       .  S
C190        N191   1.361       .  A
C190        N195   1.361       .  A
N191        C192   1.359       .  A
C192        C944   1.479       .  S
C192        N193   1.356       .  A
N193        C194   1.356       .  A
C194       C1812   1.482       .  S
C194        N195   1.360       .  A
C196        C735   1.482       .  S
C196        N197   1.364       .  A
C196        N201   1.356       .  A
N197        C198   1.363       .  A
C198       C1896   1.479       .  S
C198        N199   1.358       .  A
N199        C200   1.354       .  A
C200        C903   1.474       .  S
C200        N201   1.354       .  A
C202        C720   1.489       .  S
C202        N203   1.368       .  A
C202        N207   1.362       .  A
N203        C204   1.367       .  A
C204       C2316   1.500       .  S
C204        N205   1.356       .  A
N205        C206   1.352       .  A
C206        C888   1.487       .  S
C206        N207   1.358       .  A
C208        C679   1.476       .  S
C208        N209   1.361       .  A
C208        N213   1.358       .  A
N209        C210   1.361       .  A
C210       C2092   1.474       .  S
C210        N211   1.357       .  A
N211        C212   1.357       .  A
C212        C972   1.493       .  S
C212        N213   1.357       .  A
C214        C511   1.489       .  S
C214        C215   1.412   1_655  A
C214        C219   1.417   1_565  A
C215        C651   1.491       .  S
C215        C216   1.414   1_565  A
C216        C623   1.484       .  S
C216        C217   1.416   1_455  A
C217        C595   1.491       .  S
C217        C218   1.415       .  A
C218        C567   1.493       .  S
C218        C219   1.418       .  A
C219        C552   1.487       .  S
C220       C1952   1.482       .  S
C220        N221   1.363   1_655  A
C220        N225   1.355       .  A
N221        C222   1.364       .  A
C222        C496   1.493       .  S
C222        N223   1.363       .  A
N223        C224   1.361       .  A
C224        C608   1.487       .  S
C224        N225   1.355   1_455  A
C226        C455   1.495       .  S
C226        N227   1.359       .  A
C226        N231   1.368       .  A
N227        C228   1.355       .  A
C228        C636   1.486       .  S
C228        N229   1.350   1_545  A
N229        C230   1.355       .  A
C230       C2204   1.484       .  S
C230        N231   1.366   1_565  A
C232       C2288   1.487       .  S
C232        N233   1.360       .  A
C232        N237   1.360       .  A
N233        C234   1.361       .  A
C234        C664   1.498       .  S
C234        N235   1.359       .  A
N235        C236   1.360       .  A
C236        C427   1.487       .  S
C236        N237   1.360       .  A
C238       C2107   1.503       .  S
C238        N239   1.359       .  A
C238        N243   1.367       .  A
N239        C240   1.356       .  A
C240        C580   1.488       .  S
C240        N241   1.357       .  A
N241        C242   1.360       .  A
C242        C399   1.481       .  S
C242        N243   1.365       .  A
C244       C1700   1.490       .  S
C244        N245   1.363       .  A
C244        N249   1.358       .  A
N245        C246   1.363   1_565  A
C246        C384   1.481       .  S
C246        N247   1.359       .  A
N247        C248   1.356   1_545  A
C248        C539   1.480       .  S
C248        N249   1.354       .  A
C250       C1784   1.487       .  S
C250        N251   1.362       .  A
C250        N255   1.365   1_655  A
N251        C252   1.358       .  A
C252        C524   1.480       .  S
C252        N253   1.356   1_655  A
N253        C254   1.358       .  A
C254        C343   1.492       .  S
C254        N255   1.366       .  A
O256        C264   1.277       .  A
O256       Co276   2.008       .  S
O257        C265   1.255       .  A
O257       Co277   2.012       .  S
O258        C266   1.249       .  A
O258       Co278   1.975       .  S
O259        C267   1.269       .  A
O259       Co279   1.985       .  S
O260        C266   1.256       .  A
O260       Co277   2.010       .  S
O261        C267   1.278       .  A
O261       Co276   2.007       .  S
O262        C265   1.248       .  A
O262       Co279   1.978       .  S
O263        C264   1.268       .  A
O263       Co278   1.981       .  S
C264        C468   1.484       .  S
C265        C707   1.495       .  S
C266        C483   1.501       .  S
C267        C819   1.483       .  S
O268        C281   1.266       .  A
O268       Co276   1.997       .  S
O269        C282   1.290       .  A
O269       Co277   2.046       .  S
O270        C283   1.268       .  A
O270       Co278   1.998       .  S
O271        C284   1.272       .  A
O271       Co279   1.921       .  S
O272        C284   1.292       .  A
O272       Co277   2.047       .  S
O273        C283   1.268       .  A
O273       Co276   2.009       .  S
O274        C281   1.268       .  A
O274       Co279   1.994       .  S
O275        C282   1.274       .  A
O275       Co278   1.924       .  S
Co276       O280   2.104       .  S
Co277       O280   2.265       .  S
Co278       O280   1.967       .  S
Co279       O280   1.960       .  S
C281       C1420   1.484       .  S
C282       C1056   1.493       .  S
C283       C1448   1.483       .  S
C284       C1140   1.492       .  S
O285        C293   1.263       .  A
O285       Co305   1.971       .  S
O286        C294   1.259       .  A
O286       Co306   1.962       .  S
O287        C295   1.272       .  A
O287       Co307   2.025       .  S
O288        C296   1.273       .  A
O288       Co308   2.033       .  S
O289        C295   1.260       .  A
O289       Co306   1.963       .  S
O290        C296   1.262       .  A
O290       Co305   1.965       .  S
O291        C294   1.269       .  A
O291       Co308   2.029       .  S
O292        C293   1.268       .  A
O292       Co307   2.017       .  S
C293        C371   1.489       .  S
C294       C1084   1.491       .  S
C295       C1028   1.487       .  S
C296        C412   1.497       .  S
O297        C310   1.269       .  A
O297       Co305   2.017       .  S
O298        C311   1.270       .  A
O298       Co306   2.033       .  S
O299        C312   1.263       .  A
O299       Co307   1.965       .  S
O300        C313   1.262       .  A
O300       Co308   1.965       .  S
O301        C313   1.272       .  A
O301       Co306   2.032       .  S
O302        C312   1.272       .  A
O302       Co305   2.027       .  S
O303        C310   1.260       .  A
O303       Co308   1.967       .  S
O304        C311   1.259       .  A
O304       Co307   1.961       .  S
Co305       O309   2.113       .  S
Co306       O309   2.114       .  S
Co307       O309   2.105       .  S
Co308       O309   2.115       .  S
C310        C692   1.488       .  S
C311       C1463   1.488       .  S
C312       C1504   1.490       .  S
C313        C776   1.492       .  S
O314        C322   1.270       .  A
O314       Co334   1.996       .  S
O315        C323   1.278       .  A
O315       Co335   1.994       .  S
O316        C324   1.295       .  A
O316       Co336   2.121       .  S
O317        C325   1.270       .  A
O317       Co337   1.992       .  S
O318        C324   1.269       .  A
O318       Co335   1.912       .  S
O319        C325   1.272       .  A
O319       Co334   1.986       .  S
O320        C323   1.278       .  A
O320       Co337   2.009       .  S
O321        C322   1.265       .  A
O321       Co336   1.975       .  S
C322        C748   1.481       .  S
C323       C1112   1.493       .  S
C324        C791   1.492       .  S
C325       C1168   1.482       .  S
O326        C339   1.272       .  A
O326       Co334   2.001       .  S
O327        C340   1.296       .  A
O327       Co335   2.115       .  S
O328        C341   1.276       .  A
O328       Co336   1.999       .  S
O329        C342   1.272       .  A
O329       Co337   2.004       .  S
O330        C342   1.265       .  A
O330       Co335   1.984       .  S
O331        C341   1.275       .  A
O331       Co334   2.018       .  S
O332        C339   1.275       .  A
O332       Co337   1.986       .  S
O333        C340   1.270       .  A
O333       Co336   1.896       .  S
Co334       O338   2.046       .  S
Co335       O338   1.998       .  S
Co336       O338   1.990       .  S
Co337       O338   2.034       .  S
C339       C1351   1.473       .  S
C340        C440   1.479       .  S
C341       C1392   1.487       .  S
C342        C356   1.489       .  S
C343        C344   1.410       .  A
C343        C348   1.411       .  A
C344        C345   1.406       .  A
C344        N349   1.432       .  S
C345        C346   1.404       .  A
C345        H350   1.084       .  S
C346        C351   1.488       .  S
C346        C347   1.408       .  A
C347        C348   1.410       .  A
C347        N352   1.437       .  S
C348        H353   1.084       .  S
N349        H369   1.045       .  S
N349        H370   1.046       .  S
C351        C354   1.406       .  A
C351        C358   1.411       .  A
N352        H367   1.046       .  S
N352        H368   1.045       .  S
C354        C355   1.410       .  A
C354        H359   1.084       .  S
C355        C356   1.418       .  A
C355        N360   1.432       .  S
C356        C357   1.407       .  A
C357        C358   1.397       .  A
C357        H361   1.084       .  S
C358        N362   1.433       .  S
N360        H363   1.045       .  S
N360        H364   1.045       .  S
N362        H365   1.046       .  S
N362        H366   1.044       .  S
C371        C372   1.417       .  A
C371        C376   1.406       .  A
C372        C373   1.407       .  A
C372        N377   1.438       .  S
C373        C374   1.402       .  A
C373        H378   1.084       .  S
C374        C379   1.489       .  S
C374        C375   1.412       .  A
C375        C376   1.407       .  A
C375        N380   1.438       .  S
C376        H381   1.083       .  S
N377        H397   1.046       .  S
N377        H398   1.045       .  S
C379        C382   1.403       .  A
C379        C386   1.411       .  A
N380        H395   1.046       .  S
N380        H396   1.046       .  S
C382        C383   1.405       .  A
C382        H387   1.084       .  S
C383        C384   1.412       .  A
C383        N388   1.432       .  S
C384        C385   1.401       .  A
C385        C386   1.404       .  A
C385        H389   1.084       .  S
C386        N390   1.431       .  S
N388        H391   1.046       .  S
N388        H392   1.046       .  S
N390        H393   1.045       .  S
N390        H394   1.045       .  S
C399        C400   1.412       .  A
C399        C404   1.401       .  A
C400        C401   1.413       .  A
C400        N405   1.437       .  S
C401        C402   1.406       .  A
C401        H406   1.083       .  S
C402        C407   1.494       .  S
C402        C403   1.418       .  A
C403        C404   1.400       .  A
C403        N408   1.434       .  S
C404        H409   1.084       .  S
N405        H425   1.046       .  S
N405        H426   1.046       .  S
C407        C410   1.404       .  A
C407        C414   1.411       .  A
N408        H423   1.044       .  S
N408        H424   1.045       .  S
C410        C411   1.409       .  A
C410        H415   1.084       .  S
C411        C412   1.416       .  A
C411        N416   1.438       .  S
C412        C413   1.411       .  A
C413        C414   1.410       .  A
C413        H417   1.083       .  S
C414        N418   1.439       .  S
N416        H419   1.046       .  S
N416        H420   1.046       .  S
N418        H421   1.047       .  S
N418        H422   1.041       .  S
C427        C428   1.415       .  A
C427        C432   1.407       .  A
C428        C429   1.406       .  A
C428        N433   1.438       .  S
C429        C430   1.404       .  A
C429        H434   1.084       .  S
C430        C435   1.487       .  S
C430        C431   1.410       .  A
C431        C432   1.407       .  A
C431        N436   1.438       .  S
C432        H437   1.084       .  S
N433        H453   1.046       .  S
N433        H454   1.046       .  S
C435        C438   1.403       .  A
C435        C442   1.408       .  A
N436        H451   1.046       .  S
N436        H452   1.045       .  S
C438        C439   1.405       .  A
C438        H443   1.084       .  S
C439        C440   1.414       .  A
C439        N444   1.437       .  S
C440        C441   1.404       .  A
C441        C442   1.404       .  A
C441        H445   1.084       .  S
C442        N446   1.431       .  S
N444        H447   1.046       .  S
N444        H448   1.045       .  S
N446        H449   1.045       .  S
N446        H450   1.044       .  S
C455        C456   1.419       .  A
C455        C460   1.407       .  A
C456        C457   1.402       .  A
C456        N461   1.433       .  S
C457        C458   1.396       .  A
C457        H462   1.084       .  S
C458        C463   1.483       .  S
C458        C459   1.411       .  A
C459        C460   1.411       .  A
C459        N464   1.437       .  S
C460        H465   1.083       .  S
N461        H481   1.046       .  S
N461        H482   1.045       .  S
C463        C466   1.398       .  A
C463        C470   1.414       .  A
N464        H479   1.045       .  S
N464        H480   1.046       .  S
C466        C467   1.399       .  A
C466        H471   1.084       .  S
C467        C468   1.416       .  A
C467        N472   1.434       .  S
C468        C469   1.405       .  A
C469        C470   1.407       .  A
C469        H473   1.083       .  S
C470        N474   1.431       .  S
N472        H475   1.045       .  S
N472        H476   1.046       .  S
N474        H477   1.045       .  S
N474        H478   1.046       .  S
C483        C484   1.420       .  A
C483        C488   1.410       .  A
C484        C485   1.406       .  A
C484        N489   1.431       .  S
C485        C486   1.405       .  A
C485        H490   1.084       .  S
C486        C491   1.498       .  S
C486        C487   1.412       .  A
C487        C488   1.410       .  A
C487        N492   1.438       .  S
C488        H493   1.084       .  S
N489        H509   1.046       .  S
N489        H510   1.042       .  S
C491        C494   1.405       .  A
C491        C498   1.410       .  A
N492        H507   1.046       .  S
N492        H508   1.045       .  S
C494        C495   1.413       .  A
C494        H499   1.083       .  S
C495        C496   1.417       .  A
C495        N500   1.437       .  S
C496        C497   1.404       .  A
C497        C498   1.406       .  A
C497        H501   1.084       .  S
C498        N502   1.430       .  S
N500        H503   1.046       .  S
N500        H504   1.045       .  S
N502        H505   1.045       .  S
N502        H506   1.045       .  S
C511        C512   1.410   1_655  A
C511        C516   1.402       .  A
C512        C513   1.406       .  A
C512        N517   1.437       .  S
C513        C514   1.402   1_455  A
C513        H518   1.084       .  S
C514        C519   1.480       .  S
C514        C515   1.410       .  A
C515        C516   1.405       .  A
C515        N520   1.438       .  S
C516        H521   1.083       .  S
N517        H537   1.045   1_565  S
N517        H538   1.044       .  S
C519        C522   1.400   1_655  A
C519        C526   1.412       .  A
N520        H535   1.046       .  S
N520        H536   1.044       .  S
C522        C523   1.402       .  A
C522        H527   1.084       .  S
C523        C524   1.410   1_455  A
C523        N528   1.433       .  S
C524        C525   1.404       .  A
C525        C526   1.410       .  A
C525        H529   1.084       .  S
C526        N530   1.439       .  S
N528        H531   1.046       .  S
N528        H532   1.046       .  S
N530        H533   1.045       .  S
N530        H534   1.044       .  S
C539        C540   1.415       .  A
C539        C544   1.404   1_565  A
C540        C541   1.405       .  A
C540        N545   1.438       .  S
C541        C542   1.401       .  A
C541        H546   1.084       .  S
C542        C547   1.481   1_565  S
C542        C543   1.410   1_565  A
C543        C544   1.405       .  A
C543        N548   1.438       .  S
C544        H549   1.084       .  S
N545        H565   1.045       .  S
N545        H566   1.046       .  S
C547        C550   1.402       .  A
C547        C554   1.411   1_545  A
N548        H563   1.046       .  S
N548        H564   1.046       .  S
C550        C551   1.399       .  A
C550        H555   1.084       .  S
C551        C552   1.406       .  A
C551        N556   1.430       .  S
C552        C553   1.403   1_545  A
C553        C554   1.406       .  A
C553        H557   1.083       .  S
C554        N558   1.437       .  S
N556        H559   1.046       .  S
N556        H560   1.045       .  S
N558        H561   1.045       .  S
N558        H562   1.046       .  S
C567        C568   1.412       .  A
C567        C572   1.404       .  A
C568        C569   1.407       .  A
C568        N573   1.437       .  S
C569        C570   1.401       .  A
C569        H574   1.084       .  S
C570        C575   1.482       .  S
C570        C571   1.411       .  A
C571        C572   1.400       .  A
C571        N576   1.432       .  S
C572        H577   1.083       .  S
N573        H593   1.043       .  S
N573        H594   1.045       .  S
C575        C578   1.401       .  A
C575        C582   1.408       .  A
N576        H591   1.045       .  S
N576        H592   1.045       .  S
C578        C579   1.408       .  A
C578        H583   1.084       .  S
C579        C580   1.415       .  A
C579        N584   1.438       .  S
C580        C581   1.408       .  A
C581        C582   1.407       .  A
C581        H585   1.084       .  S
C582        N586   1.438       .  S
N584        H587   1.046       .  S
N584        H588   1.046       .  S
N586        H589   1.046       .  S
N586        H590   1.045       .  S
C595        C596   1.418   1_655  A
C595        C600   1.403       .  A
C596        C597   1.401       .  A
C596        N601   1.438       .  S
C597        C598   1.403       .  A
C597        H602   1.084       .  S
C598        C603   1.490       .  S
C598        C599   1.412   1_455  A
C599        C600   1.406       .  A
C599        N604   1.438       .  S
C600        H605   1.084       .  S
N601        H621   1.043       .  S
N601        H622   1.045       .  S
C603        C606   1.402   1_455  A
C603        C610   1.412       .  A
N604        H619   1.046       .  S
N604        H620   1.045       .  S
C606        C607   1.406       .  A
C606        H611   1.084       .  S
C607        C608   1.417   1_655  A
C607        N612   1.438       .  S
C608        C609   1.404       .  A
C609        C610   1.407       .  A
C609        H613   1.083       .  S
C610        N614   1.436       .  S
N612        H615   1.046       .  S
N612        H616   1.046       .  S
N614        H617   1.045       .  S
N614        H618   1.046       .  S
C623        C624   1.406   1_545  A
C623        C628   1.402       .  A
C624        C625   1.401       .  A
C624        N629   1.432       .  S
C625        C626   1.402   1_565  A
C625        H630   1.084       .  S
C626        C631   1.476       .  S
C626        C627   1.407       .  A
C627        C628   1.400       .  A
C627        N632   1.432       .  S
C628        H633   1.082       .  S
N629        H649   1.045       .  S
N629        H650   1.045       .  S
C631        C634   1.399   1_545  A
C631        C638   1.405       .  A
N632        H647   1.046       .  S
N632        H648   1.046       .  S
C634        C635   1.405       .  A
C634        H639   1.084       .  S
C635        C636   1.420   1_565  A
C635        N640   1.438       .  S
C636        C637   1.406       .  A
C637        C638   1.400       .  A
C637        H641   1.084       .  S
C638        N642   1.431       .  S
N640        H643   1.046       .  S
N640        H644   1.046       .  S
N642        H645   1.044       .  S
N642        H646   1.046       .  S
C651        C652   1.405       .  A
C651        C656   1.402       .  A
C652        C653   1.404       .  A
C652        N657   1.432       .  S
C653        C654   1.406       .  A
C653        H658   1.083       .  S
C654        C659   1.492       .  S
C654        C655   1.414       .  A
C655        C656   1.406       .  A
C655        N660   1.438       .  S
C656        H661   1.083       .  S
N657        H677   1.045       .  S
N657        H678   1.046       .  S
C659        C662   1.403       .  A
C659        C666   1.411       .  A
N660        H675   1.046       .  S
N660        H676   1.046       .  S
C662        C663   1.404       .  A
C662        H667   1.084       .  S
C663        C664   1.417       .  A
C663        N668   1.432       .  S
C664        C665   1.410       .  A
C665        C666   1.408       .  A
C665        H669   1.083       .  S
C666        N670   1.438       .  S
N668        H671   1.046       .  S
N668        H672   1.046       .  S
N670        H673   1.045       .  S
N670        H674   1.046       .  S
C679        C680   1.410       .  A
C679        C684   1.399       .  A
C680        C681   1.411       .  A
C680        N685   1.437       .  S
C681        C682   1.408       .  A
C681        H686   1.083       .  S
C682        C687   1.494       .  S
C682        C683   1.416       .  A
C683        C684   1.401       .  A
C683        N688   1.439       .  S
C684        H689   1.084       .  S
N685        H705   1.046       .  S
N685        H706   1.046       .  S
C687        C690   1.406       .  A
C687        C694   1.409       .  A
N688        H703   1.046       .  S
N688        H704   1.045       .  S
C690        C691   1.407       .  A
C690        H695   1.084       .  S
C691        C692   1.415       .  A
C691        N696   1.438       .  S
C692        C693   1.407       .  A
C693        C694   1.402       .  A
C693        H697   1.084       .  S
C694        N698   1.432       .  S
N696        H699   1.046       .  S
N696        H700   1.045       .  S
N698        H701   1.046       .  S
N698        H702   1.043       .  S
C707        C708   1.413       .  A
C707        C712   1.408       .  A
C708        C709   1.410       .  A
C708        N713   1.437       .  S
C709        C710   1.407       .  A
C709        H714   1.083       .  S
C710        C715   1.506       .  S
C710        C711   1.416       .  A
C711        C712   1.415       .  A
C711        N716   1.438       .  S
C712        H717   1.084       .  S
N713        H733   1.045       .  S
N713        H734   1.046       .  S
C715        C718   1.410       .  A
C715        C722   1.417       .  A
N716        H731   1.045       .  S
N716        H732   1.045       .  S
C718        C719   1.415       .  A
C718        H723   1.083       .  S
C719        C720   1.412       .  A
C719        N724   1.437       .  S
C720        C721   1.403       .  A
C721        C722   1.408       .  A
C721        H725   1.084       .  S
C722        N726   1.438       .  S
N724        H727   1.046       .  S
N724        H728   1.046       .  S
N726        H729   1.046       .  S
N726        H730   1.045       .  S
C735        C736   1.421       .  A
C735        C740   1.403       .  A
C736        C737   1.400       .  A
C736        N741   1.433       .  S
C737        C738   1.398       .  A
C737        H742   1.084       .  S
C738        C743   1.479       .  S
C738        C739   1.411       .  A
C739        C740   1.404       .  A
C739        N744   1.438       .  S
C740        H745   1.084       .  S
N741        H761   1.043       .  S
N741        H762   1.046       .  S
C743        C746   1.398       .  A
C743        C750   1.410       .  A
N744        H759   1.046       .  S
N744        H760   1.046       .  S
C746        C747   1.395       .  A
C746        H751   1.084       .  S
C747        C748   1.414       .  A
C747        N752   1.434       .  S
C748        C749   1.407       .  A
C749        C750   1.412       .  A
C749        H753   1.083       .  S
C750        N754   1.437       .  S
N752        H755   1.045       .  S
N752        H756   1.046       .  S
N754        H757   1.046       .  S
N754        H758   1.045       .  S
C763        C764   1.412       .  A
C763        C768   1.401       .  A
C764        C765   1.409       .  A
C764        N769   1.437       .  S
C765        C766   1.406       .  A
C765        H770   1.083       .  S
C766        C771   1.494       .  S
C766        C767   1.414       .  A
C767        C768   1.404       .  A
C767        N772   1.437       .  S
C768        H773   1.084       .  S
N769        H789   1.046       .  S
N769        H790   1.045       .  S
C771        C774   1.405       .  A
C771        C778   1.413       .  A
N772        H787   1.046       .  S
N772        H788   1.045       .  S
C774        C775   1.409       .  A
C774        H779   1.084       .  S
C775        C776   1.416       .  A
C775        N780   1.438       .  S
C776        C777   1.407       .  A
C777        C778   1.406       .  A
C777        H781   1.083       .  S
C778        N782   1.438       .  S
N780        H783   1.045       .  S
N780        H784   1.046       .  S
N782        H785   1.046       .  S
N782        H786   1.046       .  S
C791        C792   1.414       .  A
C791        C796   1.406       .  A
C792        C793   1.410       .  A
C792        N797   1.437       .  S
C793        C794   1.404       .  A
C793        H798   1.083       .  S
C794        C799   1.496       .  S
C794        C795   1.416       .  A
C795        C796   1.406       .  A
C795        N800   1.433       .  S
C796        H801   1.084       .  S
N797        H817   1.045       .  S
N797        H818   1.046       .  S
C799        C802   1.404       .  A
C799        C806   1.415       .  A
N800        H815   1.044       .  S
N800        H816   1.046       .  S
C802        C803   1.407       .  A
C802        H807   1.080       .  S
C803        C804   1.412       .  A
C803        N808   1.438       .  S
C804        C805   1.406       .  A
C805        C806   1.406       .  A
C805        H809   1.084       .  S
C806        N810   1.432       .  S
N808        H811   1.046       .  S
N808        H812   1.046       .  S
N810        H813   1.044       .  S
N810        H814   1.046       .  S
C819        C820   1.415       .  A
C819        C824   1.407       .  A
C820        C821   1.406       .  A
C820        N825   1.432       .  S
C821        C822   1.405       .  A
C821        H826   1.084       .  S
C822        C827   1.486       .  S
C822        C823   1.408       .  A
C823        C824   1.404       .  A
C823        N828   1.438       .  S
C824        H829   1.084       .  S
N825        H845   1.045       .  S
N825        H846   1.046       .  S
C827        C830   1.399       .  A
C827        C834   1.411       .  A
N828        H843   1.046       .  S
N828        H844   1.045       .  S
C830        C831   1.408       .  A
C830        H835   1.084       .  S
C831        C832   1.418       .  A
C831        N836   1.438       .  S
C832        C833   1.404       .  A
C833        C834   1.410       .  A
C833        H837   1.083       .  S
C834        N838   1.437       .  S
N836        H839   1.046       .  S
N836        H840   1.045       .  S
N838        H841   1.045       .  S
N838        H842   1.046       .  S
C847        C848   1.406       .  A
C847        C852   1.402       .  A
C848        C849   1.402       .  A
C848        N853   1.431       .  S
C849        C850   1.404       .  A
C849        H854   1.084       .  S
C850        C855   1.492       .  S
C850        C851   1.415       .  A
C851        C852   1.409       .  A
C851        N856   1.437       .  S
C852        H857   1.084       .  S
N853        H873   1.045       .  S
N853        H874   1.045       .  S
C855        C858   1.404       .  A
C855        C862   1.413       .  A
N856        H871   1.046       .  S
N856        H872   1.045       .  S
C858        C859   1.405       .  A
C858        H863   1.084       .  S
C859        C860   1.414       .  A
C859        N864   1.432       .  S
C860        C861   1.407       .  A
C861        C862   1.408       .  A
C861        H865   1.083       .  S
C862        N866   1.438       .  S
N864        H867   1.046       .  S
N864        H868   1.046       .  S
N866        H869   1.046       .  S
N866        H870   1.046       .  S
C875        C876   1.415       .  A
C875        C880   1.401       .  A
C876        C877   1.399       .  A
C876        N881   1.438       .  S
C877        C878   1.401       .  A
C877        H882   1.084       .  S
C878        C883   1.479       .  S
C878        C879   1.416       .  A
C879        C880   1.400       .  A
C879        N884   1.439       .  S
C880        H885   1.083       .  S
N881        H901   1.043       .  S
N881        H902   1.045       .  S
C883        C886   1.402       .  A
C883        C890   1.407       .  A
N884        H899   1.046       .  S
N884        H900   1.043       .  S
C886        C887   1.408       .  A
C886        H891   1.084       .  S
C887        C888   1.415       .  A
C887        N892   1.437       .  S
C888        C889   1.409       .  A
C889        C890   1.402       .  A
C889        H893   1.083       .  S
C890        N894   1.439       .  S
N892        H895   1.046       .  S
N892        H896   1.046       .  S
N894        H897   1.046       .  S
N894        H898   1.046       .  S
C903        C904   1.413       .  A
C903        C908   1.403       .  A
C904        C905   1.405       .  A
C904        N909   1.438       .  S
C905        C906   1.400       .  A
C905        H910   1.084       .  S
C906        C911   1.472       .  S
C906        C907   1.407       .  A
C907        C908   1.403       .  A
C907        N912   1.438       .  S
C908        H913   1.084       .  S
N909        H929   1.046       .  S
N909        H930   1.046       .  S
C911        C914   1.400       .  A
C911        C918   1.406       .  A
N912        H927   1.046       .  S
N912        H928   1.044       .  S
C914        C915   1.398       .  A
C914        H919   1.084       .  S
C915        C916   1.416       .  A
C915        N920   1.438       .  S
C916        C917   1.405       .  A
C917        C918   1.403       .  A
C917        H921   1.084       .  S
C918        N922   1.438       .  S
N920        H923   1.045       .  S
N920        H924   1.043       .  S
N922        H925   1.046       .  S
N922        H926   1.044       .  S
C931        C932   1.406       .  A
C931        C936   1.404       .  A
C932        C933   1.402       .  A
C932        N937   1.431       .  S
C933        C934   1.404       .  A
C933        H938   1.084       .  S
C934        C939   1.485       .  S
C934        C935   1.411       .  A
C935        C936   1.406       .  A
C935        N940   1.437       .  S
C936        H941   1.083       .  S
N937        H957   1.045       .  S
N937        H958   1.045       .  S
C939        C942   1.405       .  A
C939        C946   1.410       .  A
N940        H955   1.046       .  S
N940        H956   1.045       .  S
C942        C943   1.409       .  A
C942        H947   1.084       .  S
C943        C944   1.413       .  A
C943        N948   1.438       .  S
C944        C945   1.403       .  A
C945        C946   1.403       .  A
C945        H949   1.084       .  S
C946        N950   1.438       .  S
N948        H951   1.046       .  S
N948        H952   1.045       .  S
N950        H953   1.046       .  S
N950        H954   1.046       .  S
C959        C960   1.416       .  A
C959        C964   1.403       .  A
C960        C961   1.399       .  A
C960        N965   1.438       .  S
C961        C962   1.401       .  A
C961        H966   1.084       .  S
C962        C967   1.482       .  S
C962        C963   1.411       .  A
C963        C964   1.405       .  A
C963        N968   1.438       .  S
C964        H969   1.084       .  S
N965        H985   1.041       .  S
N965        H986   1.046       .  S
C967        C970   1.400       .  A
C967        C974   1.405       .  A
N968        H983   1.046       .  S
N968        H984   1.045       .  S
C970        C971   1.405       .  A
C970        H975   1.084       .  S
C971        C972   1.420       .  A
C971        N976   1.438       .  S
C972        C973   1.411       .  A
C973        C974   1.404       .  A
C973        H977   1.083       .  S
C974        N978   1.433       .  S
N976        H979   1.046       .  S
N976        H980   1.046       .  S
N978        H981   1.046       .  S
N978        H982   1.046       .  S
C987        C988   1.417       .  A
C987        C992   1.402       .  A
C988        C989   1.400       .  A
C988        N993   1.438       .  S
C989        C990   1.400       .  A
C989        H994   1.084       .  S
C990        C995   1.478       .  S
C990        C991   1.408       .  A
C991        C992   1.404       .  A
C991        N996   1.437       .  S
C992        H997   1.084       .  S
N993       H1013   1.041       .  S
N993       H1014   1.046       .  S
C995        C998   1.401       .  A
C995       C1002   1.407       .  A
N996       H1011   1.045       .  S
N996       H1012   1.046       .  S
C998        C999   1.406       .  A
C998       H1003   1.084       .  S
C999       C1000   1.414       .  A
C999       N1004   1.438       .  S
C1000      C1001   1.406       .  A
C1001      C1002   1.405       .  A
C1001      H1005   1.084       .  S
C1002      N1006   1.438       .  S
N1004      H1007   1.046       .  S
N1004      H1008   1.046       .  S
N1006      H1009   1.046       .  S
N1006      H1010   1.046       .  S
C1015      C1016   1.414       .  A
C1015      C1020   1.400       .  A
C1016      C1017   1.411       .  A
C1016      N1021   1.437       .  S
C1017      C1018   1.402       .  A
C1017      H1022   1.083       .  S
C1018      C1023   1.482       .  S
C1018      C1019   1.408       .  A
C1019      C1020   1.399       .  A
C1019      N1024   1.431       .  S
C1020      H1025   1.084       .  S
N1021      H1041   1.046       .  S
N1021      H1042   1.046       .  S
C1023      C1026   1.401       .  A
C1023      C1030   1.408       .  A
N1024      H1039   1.044       .  S
N1024      H1040   1.044       .  S
C1026      C1027   1.405       .  A
C1026      H1031   1.084       .  S
C1027      C1028   1.415       .  A
C1027      N1032   1.432       .  S
C1028      C1029   1.407       .  A
C1029      C1030   1.404       .  A
C1029      H1033   1.084       .  S
C1030      N1034   1.437       .  S
N1032      H1035   1.046       .  S
N1032      H1036   1.046       .  S
N1034      H1037   1.046       .  S
N1034      H1038   1.045       .  S
C1043      C1044   1.415       .  A
C1043      C1048   1.409       .  A
C1044      C1045   1.414       .  A
C1044      N1049   1.437       .  S
C1045      C1046   1.406       .  A
C1045      H1050   1.083       .  S
C1046      C1051   1.486       .  S
C1046      C1047   1.405       .  A
C1047      C1048   1.403       .  A
C1047      N1052   1.438       .  S
C1048      H1053   1.083       .  S
N1049      H1069   1.046       .  S
N1049      H1070   1.046       .  S
C1051      C1054   1.402       .  A
C1051      C1058   1.406       .  A
N1052      H1067   1.046       .  S
N1052      H1068   1.045       .  S
C1054      C1055   1.408       .  A
C1054      H1059   1.084       .  S
C1055      C1056   1.418       .  A
C1055      N1060   1.437       .  S
C1056      C1057   1.409       .  A
C1057      C1058   1.407       .  A
C1057      H1061   1.083       .  S
C1058      N1062   1.437       .  S
N1060      H1063   1.046       .  S
N1060      H1064   1.045       .  S
N1062      H1065   1.046       .  S
N1062      H1066   1.046       .  S
C1071      C1072   1.413       .  A
C1071      C1076   1.403       .  A
C1072      C1073   1.406       .  A
C1072      N1077   1.438       .  S
C1073      C1074   1.403       .  A
C1073      H1078   1.084       .  S
C1074      C1079   1.491       .  S
C1074      C1075   1.413       .  A
C1075      C1076   1.408       .  A
C1075      N1080   1.437       .  S
C1076      H1081   1.084       .  S
N1077      H1097   1.045       .  S
N1077      H1098   1.046       .  S
C1079      C1082   1.404       .  A
C1079      C1086   1.412       .  A
N1080      H1095   1.046       .  S
N1080      H1096   1.045       .  S
C1082      C1083   1.410       .  A
C1082      H1087   1.083       .  S
C1083      C1084   1.415       .  A
C1083      N1088   1.437       .  S
C1084      C1085   1.407       .  A
C1085      C1086   1.406       .  A
C1085      H1089   1.083       .  S
C1086      N1090   1.438       .  S
N1088      H1091   1.045       .  S
N1088      H1092   1.046       .  S
N1090      H1093   1.046       .  S
N1090      H1094   1.046       .  S
C1099      C1100   1.421       .  A
C1099      C1104   1.412       .  A
C1100      C1101   1.413       .  A
C1100      N1105   1.437       .  S
C1101      C1102   1.402       .  A
C1101      H1106   1.084       .  S
C1102      C1107   1.485       .  S
C1102      C1103   1.401       .  A
C1103      C1104   1.403       .  A
C1103      N1108   1.432       .  S
C1104      H1109   1.083       .  S
N1105      H1125   1.045       .  S
N1105      H1126   1.045       .  S
C1107      C1110   1.406       .  A
C1107      C1114   1.408       .  A
N1108      H1123   1.045       .  S
N1108      H1124   1.046       .  S
C1110      C1111   1.410       .  A
C1110      H1115   1.084       .  S
C1111      C1112   1.419       .  A
C1111      N1116   1.431       .  S
C1112      C1113   1.408       .  A
C1113      C1114   1.395       .  A
C1113      H1117   1.081       .  S
C1114      N1118   1.433       .  S
N1116      H1119   1.045       .  S
N1116      H1120   1.045       .  S
N1118      H1121   1.045       .  S
N1118      H1122   1.045       .  S
C1127      C1128   1.412       .  A
C1127      C1132   1.404       .  A
C1128      C1129   1.398       .  A
C1128      N1133   1.432       .  S
C1129      C1130   1.405       .  A
C1129      H1134   1.084       .  S
C1130      C1135   1.498       .  S
C1130      C1131   1.416       .  A
C1131      C1132   1.413       .  A
C1131      N1136   1.437       .  S
C1132      H1137   1.084       .  S
N1133      H1153   1.043       .  S
N1133      H1154   1.046       .  S
C1135      C1138   1.404       .  A
C1135      C1142   1.415       .  A
N1136      H1151   1.046       .  S
N1136      H1152   1.045       .  S
C1138      C1139   1.405       .  A
C1138      H1143   1.082       .  S
C1139      C1140   1.415       .  A
C1139      N1144   1.433       .  S
C1140      C1141   1.405       .  A
C1141      C1142   1.408       .  A
C1141      H1145   1.083       .  S
C1142      N1146   1.438       .  S
N1144      H1147   1.045       .  S
N1144      H1148   1.045       .  S
N1146      H1149   1.046       .  S
N1146      H1150   1.046       .  S
C1155      C1156   1.420       .  A
C1155      C1160   1.405       .  A
C1156      C1157   1.404       .  A
C1156      N1161   1.438       .  S
C1157      C1158   1.396       .  A
C1157      H1162   1.084       .  S
C1158      C1163   1.479       .  S
C1158      C1159   1.408       .  A
C1159      C1160   1.405       .  A
C1159      N1164   1.432       .  S
C1160      H1165   1.084       .  S
N1161      H1181   1.046       .  S
N1161      H1182   1.045       .  S
C1163      C1166   1.404       .  A
C1163      C1170   1.406       .  A
N1164      H1179   1.046       .  S
N1164      H1180   1.046       .  S
C1166      C1167   1.412       .  A
C1166      H1171   1.084       .  S
C1167      C1168   1.414       .  A
C1167      N1172   1.437       .  S
C1168      C1169   1.405       .  A
C1169      C1170   1.398       .  A
C1169      H1173   1.081       .  S
C1170      N1174   1.439       .  S
N1172      H1175   1.046       .  S
N1172      H1176   1.046       .  S
N1174      H1177   1.046       .  S
N1174      H1178   1.046       .  S
C1183      C1184   1.418       .  A
C1183      C1188   1.405       .  A
C1184      C1185   1.402       .  A
C1184      N1189   1.437       .  S
C1185      C1186   1.400       .  A
C1185      H1190   1.084       .  S
C1186      C1191   1.480       .  S
C1186      C1187   1.408       .  A
C1187      C1188   1.406       .  A
C1187      N1192   1.437       .  S
C1188      H1193   1.083       .  S
N1189      H1209   1.043       .  S
N1189      H1210   1.045       .  S
C1191      C1194   1.400       .  A
C1191      C1198   1.408       .  A
N1192      H1207   1.046       .  S
N1192      H1208   1.045       .  S
C1194      C1195   1.407       .  A
C1194      H1199   1.084       .  S
C1195      C1196   1.416       .  A
C1195      N1200   1.437       .  S
C1196      C1197   1.407       .  A
C1197      C1198   1.407       .  A
C1197      H1201   1.083       .  S
C1198      N1202   1.438       .  S
N1200      H1203   1.046       .  S
N1200      H1204   1.046       .  S
N1202      H1205   1.046       .  S
N1202      H1206   1.045       .  S
C1211      C1212   1.409   1_556  A
C1211      C1216   1.401       .  A
C1212      C1213   1.401       .  A
C1212      N1217   1.432       .  S
C1213      C1214   1.402   1_554  A
C1213      H1218   1.084       .  S
C1214      C1219   1.474       .  S
C1214      C1215   1.406       .  A
C1215      C1216   1.397       .  A
C1215      N1220   1.432       .  S
C1216      H1221   1.084       .  S
N1217      H1237   1.045       .  S
N1217      H1238   1.045       .  S
C1219      C1222   1.402       .  A
C1219      C1226   1.409   1_556  A
N1220      H1235   1.046       .  S
N1220      H1236   1.046       .  S
C1222      C1223   1.399       .  A
C1222      H1227   1.084       .  S
C1223      C1224   1.408       .  A
C1223      N1228   1.432       .  S
C1224      C1225   1.404   1_556  A
C1225      C1226   1.403       .  A
C1225      H1229   1.084       .  S
C1226      N1230   1.438       .  S
N1228      H1231   1.046       .  S
N1228      H1232   1.046       .  S
N1230      H1233   1.045       .  S
N1230      H1234   1.046       .  S
C1239      C1240   1.419       .  A
C1239      C1244   1.406   1_655  A
C1240      C1241   1.403       .  A
C1240      N1245   1.439       .  S
C1241      C1242   1.401       .  A
C1241      H1246   1.084       .  S
C1242      C1247   1.479       .  S
C1242      C1243   1.407   1_655  A
C1243      C1244   1.405       .  A
C1243      N1248   1.437       .  S
C1244      H1249   1.083       .  S
N1245      H1265   1.042   1_554  S
N1245      H1266   1.046       .  S
C1247      C1250   1.400       .  A
C1247      C1254   1.407   1_655  A
N1248      H1263   1.046       .  S
N1248      H1264   1.045       .  S
C1250      C1251   1.407       .  A
C1250      H1255   1.084       .  S
C1251      C1252   1.416       .  A
C1251      N1256   1.438       .  S
C1252      C1253   1.407   1_655  A
C1253      C1254   1.407       .  A
C1253      H1257   1.083       .  S
C1254      N1258   1.438       .  S
N1256      H1259   1.046       .  S
N1256      H1260   1.046       .  S
N1258      H1261   1.046       .  S
N1258      H1262   1.045       .  S
C1267      C1268   1.408       .  A
C1267      C1272   1.401       .  A
C1268      C1269   1.404       .  A
C1268      N1273   1.437       .  S
C1269      C1270   1.404       .  A
C1269      H1274   1.084       .  S
C1270      C1275   1.484       .  S
C1270      C1271   1.411       .  A
C1271      C1272   1.403       .  A
C1271      N1276   1.437       .  S
C1272      H1277   1.083       .  S
N1273      H1293   1.044       .  S
N1273      H1294   1.046       .  S
C1275      C1278   1.402       .  A
C1275      C1282   1.411       .  A
N1276      H1291   1.046       .  S
N1276      H1292   1.045       .  S
C1278      C1279   1.405       .  A
C1278      H1283   1.084       .  S
C1279      C1280   1.415       .  A
C1279      N1284   1.438       .  S
C1280      C1281   1.405       .  A
C1281      C1282   1.405       .  A
C1281      H1285   1.084       .  S
C1282      N1286   1.438       .  S
N1284      H1287   1.046       .  S
N1284      H1288   1.046       .  S
N1286      H1289   1.046       .  S
N1286      H1290   1.046       .  S
C1295      C1296   1.406       .  A
C1295      C1300   1.401   1_556  A
C1296      C1297   1.404       .  A
C1296      N1301   1.431       .  S
C1297      C1298   1.404   1_556  A
C1297      H1302   1.084       .  S
C1298      C1303   1.480       .  S
C1298      C1299   1.409       .  A
C1299      C1300   1.402       .  A
C1299      N1304   1.437       .  S
C1300      H1305   1.083       .  S
N1301      H1321   1.046       .  S
N1301      H1322   1.045       .  S
C1303      C1306   1.401   1_554  A
C1303      C1310   1.411       .  A
N1304      H1319   1.045       .  S
N1304      H1320   1.046       .  S
C1306      C1307   1.405       .  A
C1306      H1311   1.084       .  S
C1307      C1308   1.415   1_556  A
C1307      N1312   1.438       .  S
C1308      C1309   1.403       .  A
C1309      C1310   1.405       .  A
C1309      H1313   1.084       .  S
C1310      N1314   1.439       .  S
N1312      H1315   1.045       .  S
N1312      H1316   1.046       .  S
N1314      H1317   1.046       .  S
N1314      H1318   1.043       .  S
C1323      C1324   1.403   1_655  A
C1323      C1328   1.400       .  A
C1324      C1325   1.399       .  A
C1324      N1329   1.432       .  S
C1325      C1326   1.404   1_455  A
C1325      H1330   1.084       .  S
C1326      C1331   1.481       .  S
C1326      C1327   1.411       .  A
C1327      C1328   1.404       .  A
C1327      N1332   1.437       .  S
C1328      H1333   1.083       .  S
N1329      H1349   1.045       .  S
N1329      H1350   1.045       .  S
C1331      C1334   1.403       .  A
C1331      C1338   1.408   1_655  A
N1332      H1347   1.046       .  S
N1332      H1348   1.045       .  S
C1334      C1335   1.407       .  A
C1334      H1339   1.084       .  S
C1335      C1336   1.415       .  A
C1335      N1340   1.438       .  S
C1336      C1337   1.406   1_655  A
C1337      C1338   1.401       .  A
C1337      H1341   1.083       .  S
C1338      N1342   1.439       .  S
N1340      H1343   1.046       .  S
N1340      H1344   1.046       .  S
N1342      H1345   1.046       .  S
N1342      H1346   1.046       .  S
C1351      C1352   1.415       .  A
C1351      C1356   1.404       .  A
C1352      C1353   1.401       .  A
C1352      N1357   1.432       .  S
C1353      C1354   1.401       .  A
C1353      H1358   1.084       .  S
C1354      C1359   1.479       .  S
C1354      C1355   1.411       .  A
C1355      C1356   1.399       .  A
C1355      N1360   1.433       .  S
C1356      H1361   1.083       .  S
N1357      H1377   1.045       .  S
N1357      H1378   1.044       .  S
C1359      C1362   1.395       .  A
C1359      C1366   1.411       .  A
N1360      H1375   1.045       .  S
N1360      H1376   1.045       .  S
C1362      C1363   1.400       .  A
C1362      H1367   1.084       .  S
C1363      C1364   1.418       .  A
C1363      N1368   1.433       .  S
C1364      C1365   1.406       .  A
C1365      C1366   1.411       .  A
C1365      H1369   1.083       .  S
C1366      N1370   1.437       .  S
N1368      H1371   1.046       .  S
N1368      H1372   1.046       .  S
N1370      H1373   1.045       .  S
N1370      H1374   1.046       .  S
C1379      C1380   1.412       .  A
C1379      C1384   1.404       .  A
C1380      C1381   1.409       .  A
C1380      N1385   1.438       .  S
C1381      C1382   1.404       .  A
C1381      H1386   1.084       .  S
C1382      C1387   1.498       .  S
C1382      C1383   1.414       .  A
C1383      C1384   1.412       .  A
C1383      N1388   1.432       .  S
C1384      H1389   1.084       .  S
N1385      H1405   1.046       .  S
N1385      H1406   1.046       .  S
C1387      C1390   1.400       .  A
C1387      C1394   1.418       .  A
N1388      H1403   1.046       .  S
N1388      H1404   1.046       .  S
C1390      C1391   1.398       .  A
C1390      H1395   1.084       .  S
C1391      C1392   1.417       .  A
C1391      N1396   1.430       .  S
C1392      C1393   1.403       .  A
C1393      C1394   1.416       .  A
C1393      H1397   1.083       .  S
C1394      N1398   1.437       .  S
N1396      H1399   1.045       .  S
N1396      H1400   1.043       .  S
N1398      H1401   1.046       .  S
N1398      H1402   1.046       .  S
C1407      C1408   1.418       .  A
C1407      C1412   1.406       .  A
C1408      C1409   1.404       .  A
C1408      N1413   1.433       .  S
C1409      C1410   1.398       .  A
C1409      H1414   1.084       .  S
C1410      C1415   1.485       .  S
C1410      C1411   1.412       .  A
C1411      C1412   1.411       .  A
C1411      N1416   1.437       .  S
C1412      H1417   1.083       .  S
N1413      H1433   1.046       .  S
N1413      H1434   1.046       .  S
C1415      C1418   1.403       .  A
C1415      C1422   1.408       .  A
N1416      H1431   1.046       .  S
N1416      H1432   1.045       .  S
C1418      C1419   1.406       .  A
C1418      H1423   1.084       .  S
C1419      C1420   1.417       .  A
C1419      N1424   1.431       .  S
C1420      C1421   1.405       .  A
C1421      C1422   1.404       .  A
C1421      H1425   1.082       .  S
C1422      N1426   1.438       .  S
N1424      H1427   1.045       .  S
N1424      H1428   1.045       .  S
N1426      H1429   1.046       .  S
N1426      H1430   1.046       .  S
C1435      C1436   1.408       .  A
C1435      C1440   1.405       .  A
C1436      C1437   1.405       .  A
C1436      N1441   1.432       .  S
C1437      C1438   1.407       .  A
C1437      H1442   1.084       .  S
C1438      C1443   1.503       .  S
C1438      C1439   1.418       .  A
C1439      C1440   1.416       .  A
C1439      N1444   1.437       .  S
C1440      H1445   1.084       .  S
N1441      H1461   1.046       .  S
N1441      H1462   1.046       .  S
C1443      C1446   1.404       .  A
C1443      C1450   1.418       .  A
N1444      H1459   1.045       .  S
N1444      H1460   1.046       .  S
C1446      C1447   1.406       .  A
C1446      H1451   1.083       .  S
C1447      C1448   1.410       .  A
C1447      N1452   1.431       .  S
C1448      C1449   1.401       .  A
C1449      C1450   1.414       .  A
C1449      H1453   1.081       .  S
C1450      N1454   1.437       .  S
N1452      H1455   1.046       .  S
N1452      H1456   1.045       .  S
N1454      H1457   1.046       .  S
N1454      H1458   1.045       .  S
C1463      C1464   1.414       .  A
C1463      C1468   1.407       .  A
C1464      C1465   1.402       .  A
C1464      N1469   1.433       .  S
C1465      C1466   1.401       .  A
C1465      H1470   1.084       .  S
C1466      C1471   1.488       .  S
C1466      C1467   1.412       .  A
C1467      C1468   1.413       .  A
C1467      N1472   1.438       .  S
C1468      H1473   1.084       .  S
N1469      H1489   1.046       .  S
N1469      H1490   1.045       .  S
C1471      C1474   1.400       .  A
C1471      C1478   1.413       .  A
N1472      H1487   1.045       .  S
N1472      H1488   1.044       .  S
C1474      C1475   1.406       .  A
C1474      H1479   1.084       .  S
C1475      C1476   1.415       .  A
C1475      N1480   1.438       .  S
C1476      C1477   1.402       .  A
C1477      C1478   1.409       .  A
C1477      H1481   1.084       .  S
C1478      N1482   1.435       .  S
N1480      H1483   1.046       .  S
N1480      H1484   1.045       .  S
N1482      H1485   1.045       .  S
N1482      H1486   1.046       .  S
C1491      C1492   1.413       .  A
C1491      C1496   1.403       .  A
C1492      C1493   1.407       .  A
C1492      N1497   1.437       .  S
C1493      C1494   1.401       .  A
C1493      H1498   1.083       .  S
C1494      C1499   1.487       .  S
C1494      C1495   1.412       .  A
C1495      C1496   1.409       .  A
C1495      N1500   1.437       .  S
C1496      H1501   1.084       .  S
N1497      H1517   1.045       .  S
N1497      H1518   1.046       .  S
C1499      C1502   1.402       .  A
C1499      C1506   1.413       .  A
N1500      H1515   1.045       .  S
N1500      H1516   1.045       .  S
C1502      C1503   1.406       .  A
C1502      H1507   1.083       .  S
C1503      C1504   1.415       .  A
C1503      N1508   1.433       .  S
C1504      C1505   1.407       .  A
C1505      C1506   1.401       .  A
C1505      H1509   1.084       .  S
C1506      N1510   1.433       .  S
N1508      H1511   1.045       .  S
N1508      H1512   1.046       .  S
N1510      H1513   1.044       .  S
N1510      H1514   1.046       .  S
C1519      C1520   1.419   1_545  A
C1519      C1524   1.403       .  A
C1520      C1521   1.405       .  A
C1520      N1525   1.438       .  S
C1521      C1522   1.401   1_565  A
C1521      H1526   1.084       .  S
C1522      C1527   1.481       .  S
C1522      C1523   1.405       .  A
C1523      C1524   1.403       .  A
C1523      N1528   1.432       .  S
C1524      H1529   1.083       .  S
N1525      H1545   1.044       .  S
N1525      H1546   1.045       .  S
C1527      C1530   1.402   1_545  A
C1527      C1534   1.405       .  A
N1528      H1543   1.046       .  S
N1528      H1544   1.045       .  S
C1530      C1531   1.407       .  A
C1530      H1535   1.084       .  S
C1531      C1532   1.414   1_565  A
C1531      N1536   1.432       .  S
C1532      C1533   1.407       .  A
C1533      C1534   1.404       .  A
C1533      H1537   1.084       .  S
C1534      N1538   1.431       .  S
N1536      H1539   1.046       .  S
N1536      H1540   1.046       .  S
N1538      H1541   1.045       .  S
N1538      H1542   1.046       .  S
C1547      C1548   1.405       .  A
C1547      C1552   1.398   1_554  A
C1548      C1549   1.399       .  A
C1548      N1553   1.432       .  S
C1549      C1550   1.402   1_554  A
C1549      H1554   1.084       .  S
C1550      C1555   1.473       .  S
C1550      C1551   1.413       .  A
C1551      C1552   1.395       .  A
C1551      N1556   1.432       .  S
C1552      H1557   1.084       .  S
N1553      H1573   1.045       .  S
N1553      H1574   1.045   1_565  S
C1555      C1558   1.400       .  A
C1555      C1562   1.408   1_556  A
N1556      H1571   1.044       .  S
N1556      H1572   1.046       .  S
C1558      C1559   1.401       .  A
C1558      H1563   1.084       .  S
C1559      C1560   1.411       .  A
C1559      N1564   1.432       .  S
C1560      C1561   1.405   1_556  A
C1561      C1562   1.401       .  A
C1561      H1565   1.084       .  S
C1562      N1566   1.438       .  S
N1564      H1567   1.046       .  S
N1564      H1568   1.046       .  S
N1566      H1569   1.046       .  S
N1566      H1570   1.045       .  S
C1575      C1576   1.417       .  A
C1575      C1580   1.401   1_554  A
C1576      C1577   1.401       .  A
C1576      N1581   1.438       .  S
C1577      C1578   1.402       .  A
C1577      H1582   1.084       .  S
C1578      C1583   1.480       .  S
C1578      C1579   1.408   1_554  A
C1579      C1580   1.400       .  A
C1579      N1584   1.432       .  S
C1580      H1585   1.084       .  S
N1581      H1601   1.042       .  S
N1581      H1602   1.046       .  S
C1583      C1586   1.401       .  A
C1583      C1590   1.407   1_554  A
N1584      H1599   1.046       .  S
N1584      H1600   1.045       .  S
C1586      C1587   1.403       .  A
C1586      H1591   1.084       .  S
C1587      C1588   1.414       .  A
C1587      N1592   1.433       .  S
C1588      C1589   1.405   1_554  A
C1589      C1590   1.401       .  A
C1589      H1593   1.084       .  S
C1590      N1594   1.433       .  S
N1592      H1595   1.046       .  S
N1592      H1596   1.046       .  S
N1594      H1597   1.046       .  S
N1594      H1598   1.046       .  S
C1603      C1604   1.416       .  A
C1603      C1608   1.404       .  A
C1604      C1605   1.399       .  A
C1604      N1609   1.438       .  S
C1605      C1606   1.402       .  A
C1605      H1610   1.084       .  S
C1606      C1611   1.483       .  S
C1606      C1607   1.409       .  A
C1607      C1608   1.406       .  A
C1607      N1612   1.437       .  S
C1608      H1613   1.083       .  S
N1609      H1629   1.042   1_556  S
N1609      H1630   1.046       .  S
C1611      C1614   1.403       .  A
C1611      C1618   1.408       .  A
N1612      H1627   1.045       .  S
N1612      H1628   1.046       .  S
C1614      C1615   1.409       .  A
C1614      H1619   1.084       .  S
C1615      C1616   1.415       .  A
C1615      N1620   1.438       .  S
C1616      C1617   1.404       .  A
C1617      C1618   1.402       .  A
C1617      H1621   1.084       .  S
C1618      N1622   1.437       .  S
N1620      H1623   1.046       .  S
N1620      H1624   1.046       .  S
N1622      H1625   1.046       .  S
N1622      H1626   1.045       .  S
C1631      C1632   1.418       .  A
C1631      C1636   1.404       .  A
C1632      C1633   1.405       .  A
C1632      N1637   1.438       .  S
C1633      C1634   1.404       .  A
C1633      H1638   1.084       .  S
C1634      C1639   1.492       .  S
C1634      C1635   1.409       .  A
C1635      C1636   1.406       .  A
C1635      N1640   1.432       .  S
C1636      H1641   1.083       .  S
N1637      H1657   1.044       .  S
N1637      H1658   1.045       .  S
C1639      C1642   1.402       .  A
C1639      C1646   1.408       .  A
N1640      H1655   1.046       .  S
N1640      H1656   1.046       .  S
C1642      C1643   1.410       .  A
C1642      H1647   1.084       .  S
C1643      C1644   1.421       .  A
C1643      N1648   1.438       .  S
C1644      C1645   1.408       .  A
C1645      C1646   1.406       .  A
C1645      H1649   1.083       .  S
C1646      N1650   1.431       .  S
N1648      H1651   1.046       .  S
N1648      H1652   1.046       .  S
N1650      H1653   1.045       .  S
N1650      H1654   1.046       .  S
C1659      C1660   1.419   1_565  A
C1659      C1664   1.408       .  A
C1660      C1661   1.405       .  A
C1660      N1665   1.438       .  S
C1661      C1662   1.400   1_545  A
C1661      H1666   1.084       .  S
C1662      C1667   1.478       .  S
C1662      C1663   1.404       .  A
C1663      C1664   1.401       .  A
C1663      N1668   1.433       .  S
C1664      H1669   1.083       .  S
N1665      H1685   1.045       .  S
N1665      H1686   1.046       .  S
C1667      C1670   1.404       .  A
C1667      C1674   1.408   1_565  A
N1668      H1683   1.046       .  S
N1668      H1684   1.046       .  S
C1670      C1671   1.402       .  A
C1670      H1675   1.084       .  S
C1671      C1672   1.406   1_565  A
C1671      N1676   1.432       .  S
C1672      C1673   1.400       .  A
C1673      C1674   1.399       .  A
C1673      H1677   1.083       .  S
C1674      N1678   1.432       .  S
N1676      H1679   1.045       .  S
N1676      H1680   1.045       .  S
N1678      H1681   1.046       .  S
N1678      H1682   1.046       .  S
C1687      C1688   1.418       .  A
C1687      C1692   1.407       .  A
C1688      C1689   1.405       .  A
C1688      N1693   1.439       .  S
C1689      C1690   1.403       .  A
C1689      H1694   1.084       .  S
C1690      C1695   1.487       .  S
C1690      C1691   1.406       .  A
C1691      C1692   1.404       .  A
C1691      N1696   1.432       .  S
C1692      H1697   1.084       .  S
N1693      H1713   1.045       .  S
N1693      H1714   1.046       .  S
C1695      C1698   1.404       .  A
C1695      C1702   1.409       .  A
N1696      H1711   1.045       .  S
N1696      H1712   1.045       .  S
C1698      C1699   1.404       .  A
C1698      H1703   1.081       .  S
C1699      C1700   1.413       .  A
C1699      N1704   1.432       .  S
C1700      C1701   1.409       .  A
C1701      C1702   1.404       .  A
C1701      H1705   1.083       .  S
C1702      N1706   1.438       .  S
N1704      H1707   1.046       .  S
N1704      H1708   1.046       .  S
N1706      H1709   1.045       .  S
N1706      H1710   1.046       .  S
C1715      C1716   1.410       .  A
C1715      C1720   1.405       .  A
C1716      C1717   1.412       .  A
C1716      N1721   1.436       .  S
C1717      C1718   1.409       .  A
C1717      H1722   1.083       .  S
C1718      C1723   1.493       .  S
C1718      C1719   1.408       .  A
C1719      C1720   1.399       .  A
C1719      N1724   1.432       .  S
C1720      H1725   1.084       .  S
N1721      H1741   1.046       .  S
N1721      H1742   1.045       .  S
C1723      C1726   1.407       .  A
C1723      C1730   1.410       .  A
N1724      H1739   1.045       .  S
N1724      H1740   1.045       .  S
C1726      C1727   1.407       .  A
C1726      H1731   1.082       .  S
C1727      C1728   1.411       .  A
C1727      N1732   1.438       .  S
C1728      C1729   1.408       .  A
C1729      C1730   1.408       .  A
C1729      H1733   1.084       .  S
C1730      N1734   1.438       .  S
N1732      H1735   1.046       .  S
N1732      H1736   1.046       .  S
N1734      H1737   1.046       .  S
N1734      H1738   1.045       .  S
C1743      C1744   1.418       .  A
C1743      C1748   1.406       .  A
C1744      C1745   1.408       .  A
C1744      N1749   1.432       .  S
C1745      C1746   1.401       .  A
C1745      H1750   1.084       .  S
C1746      C1751   1.485       .  S
C1746      C1747   1.409       .  A
C1747      C1748   1.407       .  A
C1747      N1752   1.438       .  S
C1748      H1753   1.079       .  S
N1749      H1769   1.046       .  S
N1749      H1770   1.045       .  S
C1751      C1754   1.403       .  A
C1751      C1758   1.409       .  A
N1752      H1767   1.045       .  S
N1752      H1768   1.044       .  S
C1754      C1755   1.407       .  A
C1754      H1759   1.082       .  S
C1755      C1756   1.411       .  A
C1755      N1760   1.437       .  S
C1756      C1757   1.406       .  A
C1757      C1758   1.410       .  A
C1757      H1761   1.084       .  S
C1758      N1762   1.438       .  S
N1760      H1763   1.046       .  S
N1760      H1764   1.044       .  S
N1762      H1765   1.045       .  S
N1762      H1766   1.045       .  S
C1771      C1772   1.416       .  A
C1771      C1776   1.404       .  A
C1772      C1773   1.413       .  A
C1772      N1777   1.436       .  S
C1773      C1774   1.407       .  A
C1773      H1778   1.083       .  S
C1774      C1779   1.501       .  S
C1774      C1775   1.414       .  A
C1775      C1776   1.406       .  A
C1775      N1780   1.438       .  S
C1776      H1781   1.084       .  S
N1777      H1797   1.046       .  S
N1777      H1798   1.043       .  S
C1779      C1782   1.406       .  A
C1779      C1786   1.416       .  A
N1780      H1795   1.046       .  S
N1780      H1796   1.045       .  S
C1782      C1783   1.403       .  A
C1782      H1787   1.084       .  S
C1783      C1784   1.408       .  A
C1783      N1788   1.432       .  S
C1784      C1785   1.406       .  A
C1785      C1786   1.415       .  A
C1785      H1789   1.084       .  S
C1786      N1790   1.437       .  S
N1788      H1791   1.046       .  S
N1788      H1792   1.046       .  S
N1790      H1793   1.045       .  S
N1790      H1794   1.046       .  S
C1799      C1800   1.418       .  A
C1799      C1804   1.408       .  A
C1800      C1801   1.408       .  A
C1800      N1805   1.437       .  S
C1801      C1802   1.401       .  A
C1801      H1806   1.083       .  S
C1802      C1807   1.479       .  S
C1802      C1803   1.406       .  A
C1803      C1804   1.402       .  A
C1803      N1808   1.438       .  S
C1804      H1809   1.083       .  S
N1805      H1825   1.046       .  S
N1805      H1826   1.045       .  S
C1807      C1810   1.400       .  A
C1807      C1814   1.409       .  A
N1808      H1823   1.046       .  S
N1808      H1824   1.046       .  S
C1810      C1811   1.405       .  A
C1810      H1815   1.084       .  S
C1811      C1812   1.415       .  A
C1811      N1816   1.438       .  S
C1812      C1813   1.404       .  A
C1813      C1814   1.406       .  A
C1813      H1817   1.083       .  S
C1814      N1818   1.438       .  S
N1816      H1819   1.046       .  S
N1816      H1820   1.046       .  S
N1818      H1821   1.045       .  S
N1818      H1822   1.046       .  S
C1827      C1828   1.415       .  A
C1827      C1832   1.408       .  A
C1828      C1829   1.413       .  A
C1828      N1833   1.437       .  S
C1829      C1830   1.404       .  A
C1829      H1834   1.083       .  S
C1830      C1835   1.481       .  S
C1830      C1831   1.406       .  A
C1831      C1832   1.400       .  A
C1831      N1836   1.439       .  S
C1832      H1837   1.082       .  S
N1833      H1853   1.046       .  S
N1833      H1854   1.045       .  S
C1835      C1838   1.399       .  A
C1835      C1842   1.408       .  A
N1836      H1851   1.046       .  S
N1836      H1852   1.044       .  S
C1838      C1839   1.407       .  A
C1838      H1843   1.084       .  S
C1839      C1840   1.418       .  A
C1839      N1844   1.438       .  S
C1840      C1841   1.405       .  A
C1841      C1842   1.404       .  A
C1841      H1845   1.084       .  S
C1842      N1846   1.432       .  S
N1844      H1847   1.046       .  S
N1844      H1848   1.045       .  S
N1846      H1849   1.045       .  S
N1846      H1850   1.045       .  S
C1855      C1856   1.421       .  A
C1855      C1860   1.410       .  A
C1856      C1857   1.400       .  A
C1856      N1861   1.433       .  S
C1857      C1858   1.397       .  A
C1857      H1862   1.084       .  S
C1858      C1863   1.494       .  S
C1858      C1859   1.414       .  A
C1859      C1860   1.418       .  A
C1859      N1864   1.437       .  S
C1860      H1865   1.083       .  S
N1861      H1881   1.045       .  S
N1861      H1882   1.046       .  S
C1863      C1866   1.401       .  A
C1863      C1870   1.415       .  A
N1864      H1879   1.045       .  S
N1864      H1880   1.045       .  S
C1866      C1867   1.410       .  A
C1866      H1871   1.083       .  S
C1867      C1868   1.417       .  A
C1867      N1872   1.438       .  S
C1868      C1869   1.403       .  A
C1869      C1870   1.412       .  A
C1869      H1873   1.084       .  S
C1870      N1874   1.438       .  S
N1872      H1875   1.046       .  S
N1872      H1876   1.045       .  S
N1874      H1877   1.046       .  S
N1874      H1878   1.042       .  S
C1883      C1884   1.412       .  A
C1883      C1888   1.405       .  A
C1884      C1885   1.402       .  A
C1884      N1889   1.433       .  S
C1885      C1886   1.402       .  A
C1885      H1890   1.084       .  S
C1886      C1891   1.489       .  S
C1886      C1887   1.413       .  A
C1887      C1888   1.410       .  A
C1887      N1892   1.437       .  S
C1888      H1893   1.083       .  S
N1889      H1909   1.046       .  S
N1889      H1910   1.045       .  S
C1891      C1894   1.402       .  A
C1891      C1898   1.415       .  A
N1892      H1907   1.045       .  S
N1892      H1908   1.045       .  S
C1894      C1895   1.404       .  A
C1894      H1899   1.084       .  S
C1895      C1896   1.412       .  A
C1895      N1900   1.438       .  S
C1896      C1897   1.402       .  A
C1897      C1898   1.408       .  A
C1897      H1901   1.084       .  S
C1898      N1902   1.437       .  S
N1900      H1903   1.046       .  S
N1900      H1904   1.046       .  S
N1902      H1905   1.046       .  S
N1902      H1906   1.042       .  S
C1911      C1912   1.416       .  A
C1911      C1916   1.407       .  A
C1912      C1913   1.405       .  A
C1912      N1917   1.433       .  S
C1913      C1914   1.402       .  A
C1913      H1918   1.084       .  S
C1914      C1919   1.487       .  S
C1914      C1915   1.410       .  A
C1915      C1916   1.399       .  A
C1915      N1920   1.430       .  S
C1916      H1921   1.084       .  S
N1917      H1937   1.045       .  S
N1917      H1938   1.044       .  S
C1919      C1922   1.406       .  A
C1919      C1926   1.408       .  A
N1920      H1935   1.041       .  S
N1920      H1936   1.045       .  S
C1922      C1923   1.407       .  A
C1922      H1927   1.084       .  S
C1923      C1924   1.408       .  A
C1923      N1928   1.432       .  S
C1924      C1925   1.407       .  A
C1925      C1926   1.409       .  A
C1925      H1929   1.084       .  S
C1926      N1930   1.437       .  S
N1928      H1931   1.046       .  S
N1928      H1932   1.045       .  S
N1930      H1933   1.046       .  S
N1930      H1934   1.045       .  S
C1939      C1940   1.418       .  A
C1939      C1944   1.401       .  A
C1940      C1941   1.402       .  A
C1940      N1945   1.440       .  S
C1941      C1942   1.401       .  A
C1941      H1946   1.084       .  S
C1942      C1947   1.485       .  S
C1942      C1943   1.413       .  A
C1943      C1944   1.402       .  A
C1943      N1948   1.438       .  S
C1944      H1949   1.083       .  S
N1945      H1965   1.045       .  S
N1945      H1966   1.046       .  S
C1947      C1950   1.401       .  A
C1947      C1954   1.410       .  A
N1948      H1963   1.046       .  S
N1948      H1964   1.045       .  S
C1950      C1951   1.402       .  A
C1950      H1955   1.084       .  S
C1951      C1952   1.413       .  A
C1951      N1956   1.432       .  S
C1952      C1953   1.402       .  A
C1953      C1954   1.403       .  A
C1953      H1957   1.084       .  S
C1954      N1958   1.429       .  S
N1956      H1959   1.046       .  S
N1956      H1960   1.046       .  S
N1958      H1961   1.045       .  S
N1958      H1962   1.045       .  S
C1967      C1968   1.415       .  A
C1967      C1972   1.409       .  A
C1968      C1969   1.407       .  A
C1968      N1973   1.432       .  S
C1969      C1970   1.400       .  A
C1969      H1974   1.084       .  S
C1970      C1975   1.485       .  S
C1970      C1971   1.405       .  A
C1971      C1972   1.405       .  A
C1971      N1976   1.431       .  S
C1972      H1977   1.083       .  S
N1973      H1993   1.046       .  S
N1973      H1994   1.045       .  S
C1975      C1978   1.403       .  A
C1975      C1982   1.403       .  A
N1976      H1991   1.044       .  S
N1976      H1992   1.045       .  S
C1978      C1979   1.410       .  A
C1978      H1983   1.083       .  S
C1979      C1980   1.415       .  A
C1979      N1984   1.432       .  S
C1980      C1981   1.410       .  A
C1981      C1982   1.403       .  A
C1981      H1985   1.083       .  S
C1982      N1986   1.432       .  S
N1984      H1987   1.046       .  S
N1984      H1988   1.045       .  S
N1986      H1989   1.045       .  S
N1986      H1990   1.046       .  S
C1995      C1996   1.424       .  A
C1995      C2000   1.406       .  A
C1996      C1997   1.404       .  A
C1996      N2001   1.433       .  S
C1997      C1998   1.399       .  A
C1997      H2002   1.085       .  S
C1998      C2003   1.480       .  S
C1998      C1999   1.406       .  A
C1999      C2000   1.408       .  A
C1999      N2004   1.436       .  S
C2000      H2005   1.083       .  S
N2001      H2021   1.046       .  S
N2001      H2022   1.046       .  S
C2003      C2006   1.399       .  A
C2003      C2010   1.410       .  A
N2004      H2019   1.046       .  S
N2004      H2020   1.045       .  S
C2006      C2007   1.403       .  A
C2006      H2011   1.084       .  S
C2007      C2008   1.414       .  A
C2007      N2012   1.438       .  S
C2008      C2009   1.404       .  A
C2009      C2010   1.409       .  A
C2009      H2013   1.084       .  S
C2010      N2014   1.436       .  S
N2012      H2015   1.046       .  S
N2012      H2016   1.046       .  S
N2014      H2017   1.045       .  S
N2014      H2018   1.044       .  S
C2023      C2024   1.415       .  A
C2023      C2028   1.407       .  A
C2024      C2025   1.408       .  A
C2024      N2029   1.432       .  S
C2025      C2026   1.402       .  A
C2025      H2030   1.084       .  S
C2026      C2031   1.484       .  S
C2026      C2027   1.405       .  A
C2027      C2028   1.402       .  A
C2027      N2032   1.432       .  S
C2028      H2033   1.084       .  S
N2029      H2049   1.045       .  S
N2029      H2050   1.046       .  S
C2031      C2034   1.399       .  A
C2031      C2038   1.409       .  A
N2032      H2047   1.044       .  S
N2032      H2048   1.044       .  S
C2034      C2035   1.406       .  A
C2034      H2039   1.084       .  S
C2035      C2036   1.417       .  A
C2035      N2040   1.438       .  S
C2036      C2037   1.405       .  A
C2037      C2038   1.407       .  A
C2037      H2041   1.084       .  S
C2038      N2042   1.432       .  S
N2040      H2043   1.046       .  S
N2040      H2044   1.046       .  S
N2042      H2045   1.046       .  S
N2042      H2046   1.045       .  S
C2051      C2052   1.413       .  A
C2051      C2056   1.409       .  A
C2052      C2053   1.400       .  A
C2052      N2057   1.432       .  S
C2053      C2054   1.401       .  A
C2053      H2058   1.084       .  S
C2054      C2059   1.484       .  S
C2054      C2055   1.408       .  A
C2055      C2056   1.408       .  A
C2055      N2060   1.436       .  S
C2056      H2061   1.083       .  S
N2057      H2077   1.046       .  S
N2057      H2078   1.045       .  S
C2059      C2062   1.404       .  A
C2059      C2066   1.406       .  A
N2060      H2075   1.046       .  S
N2060      H2076   1.046       .  S
C2062      C2063   1.413       .  A
C2062      H2067   1.084       .  S
C2063      C2064   1.417       .  A
C2063      N2068   1.437       .  S
C2064      C2065   1.408       .  A
C2065      C2066   1.403       .  A
C2065      H2069   1.083       .  S
C2066      N2070   1.438       .  S
N2068      H2071   1.045       .  S
N2068      H2072   1.046       .  S
N2070      H2073   1.045       .  S
N2070      H2074   1.046       .  S
C2079      C2080   1.417       .  A
C2079      C2084   1.407       .  A
C2080      C2081   1.405       .  A
C2080      N2085   1.437       .  S
C2081      C2082   1.399       .  A
C2081      H2086   1.084       .  S
C2082      C2087   1.482       .  S
C2082      C2083   1.415       .  A
C2083      C2084   1.402       .  A
C2083      N2088   1.437       .  S
C2084      H2089   1.084       .  S
N2085      H2105   1.046       .  S
N2085      H2106   1.045       .  S
C2087      C2090   1.401       .  A
C2087      C2094   1.411       .  A
N2088      H2103   1.044       .  S
N2088      H2104   1.044       .  S
C2090      C2091   1.408       .  A
C2090      H2095   1.084       .  S
C2091      C2092   1.412       .  A
C2091      N2096   1.438       .  S
C2092      C2093   1.401       .  A
C2093      C2094   1.407       .  A
C2093      H2097   1.084       .  S
C2094      N2098   1.438       .  S
N2096      H2099   1.046       .  S
N2096      H2100   1.045       .  S
N2098      H2101   1.045       .  S
N2098      H2102   1.043       .  S
C2107      C2108   1.421       .  A
C2107      C2112   1.408       .  A
C2108      C2109   1.406       .  A
C2108      N2113   1.438       .  S
C2109      C2110   1.405       .  A
C2109      H2114   1.084       .  S
C2110      C2115   1.506       .  S
C2110      C2111   1.414       .  A
C2111      C2112   1.411       .  A
C2111      N2116   1.429       .  S
C2112      H2117   1.083       .  S
N2113      H2133   1.046       .  S
N2113      H2134   1.045       .  S
C2115      C2118   1.402       .  A
C2115      C2122   1.415       .  A
N2116      H2131   1.044       .  S
N2116      H2132   1.046       .  S
C2118      C2119   1.394       .  A
C2118      H2123   1.084       .  S
C2119      C2120   1.424       .  A
C2119      N2124   1.433       .  S
C2120      C2121   1.411       .  A
C2121      C2122   1.419       .  A
C2121      H2125   1.083       .  S
C2122      N2126   1.431       .  S
N2124      H2127   1.046       .  S
N2124      H2128   1.043       .  S
N2126      H2129   1.045       .  S
N2126      H2130   1.046       .  S
C2135      C2136   1.418       .  A
C2135      C2140   1.406       .  A
C2136      C2137   1.405       .  A
C2136      N2141   1.432       .  S
C2137      C2138   1.403       .  A
C2137      H2142   1.084       .  S
C2138      C2143   1.483       .  S
C2138      C2139   1.411       .  A
C2139      C2140   1.398       .  A
C2139      N2144   1.433       .  S
C2140      H2145   1.084       .  S
N2141      H2161   1.045       .  S
N2141      H2162   1.046       .  S
C2143      C2146   1.397       .  A
C2143      C2150   1.412       .  A
N2144      H2159   1.046       .  S
N2144      H2160   1.045       .  S
C2146      C2147   1.401       .  A
C2146      H2151   1.084       .  S
C2147      C2148   1.417       .  A
C2147      N2152   1.433       .  S
C2148      C2149   1.406       .  A
C2149      C2150   1.412       .  A
C2149      H2153   1.083       .  S
C2150      N2154   1.438       .  S
N2152      H2155   1.046       .  S
N2152      H2156   1.046       .  S
N2154      H2157   1.046       .  S
N2154      H2158   1.045       .  S
C2163      C2164   1.417       .  A
C2163      C2168   1.409       .  A
C2164      C2165   1.405       .  A
C2164      N2169   1.432       .  S
C2165      C2166   1.404       .  A
C2165      H2170   1.084       .  S
C2166      C2171   1.478       .  S
C2166      C2167   1.405       .  A
C2167      C2168   1.397       .  A
C2167      N2172   1.439       .  S
C2168      H2173   1.084       .  S
N2169      H2189   1.045       .  S
N2169      H2190   1.046       .  S
C2171      C2174   1.397       .  A
C2171      C2178   1.406       .  A
N2172      H2187   1.046       .  S
N2172      H2188   1.046       .  S
C2174      C2175   1.406       .  A
C2174      H2179   1.084       .  S
C2175      C2176   1.423       .  A
C2175      N2180   1.438       .  S
C2176      C2177   1.406       .  A
C2177      C2178   1.403       .  A
C2177      H2181   1.083       .  S
C2178      N2182   1.433       .  S
N2180      H2183   1.046       .  S
N2180      H2184   1.045       .  S
N2182      H2185   1.046       .  S
N2182      H2186   1.046       .  S
C2191      C2192   1.414       .  A
C2191      C2196   1.404       .  A
C2192      C2193   1.410       .  A
C2192      N2197   1.437       .  S
C2193      C2194   1.401       .  A
C2193      H2198   1.083       .  S
C2194      C2199   1.479       .  S
C2194      C2195   1.407       .  A
C2195      C2196   1.402       .  A
C2195      N2200   1.438       .  S
C2196      H2201   1.082       .  S
N2197      H2217   1.045       .  S
N2197      H2218   1.045       .  S
C2199      C2202   1.404       .  A
C2199      C2206   1.402       .  A
N2200      H2215   1.046       .  S
N2200      H2216   1.045       .  S
C2202      C2203   1.408       .  A
C2202      H2207   1.084       .  S
C2203      C2204   1.410       .  A
C2203      N2208   1.432       .  S
C2204      C2205   1.409       .  A
C2205      C2206   1.401       .  A
C2205      H2209   1.084       .  S
C2206      N2210   1.432       .  S
N2208      H2211   1.046       .  S
N2208      H2212   1.046       .  S
N2210      H2213   1.045       .  S
N2210      H2214   1.046       .  S
C2219      C2220   1.413       .  A
C2219      C2224   1.403       .  A
C2220      C2221   1.404       .  A
C2220      N2225   1.432       .  S
C2221      C2222   1.402       .  A
C2221      H2226   1.084       .  S
C2222      C2227   1.504       .  S
C2222      C2223   1.420       .  A
C2223      C2224   1.418       .  A
C2223      N2228   1.437       .  S
C2224      H2229   1.083       .  S
N2225      H2245   1.045       .  S
N2225      H2246   1.045       .  S
C2227      C2230   1.406       .  A
C2227      C2234   1.417       .  A
N2228      H2243   1.046       .  S
N2228      H2244   1.046       .  S
C2230      C2231   1.410       .  A
C2230      H2235   1.083       .  S
C2231      C2232   1.413       .  A
C2231      N2236   1.438       .  S
C2232      C2233   1.405       .  A
C2233      C2234   1.415       .  A
C2233      H2237   1.084       .  S
C2234      N2238   1.437       .  S
N2236      H2239   1.046       .  S
N2236      H2240   1.046       .  S
N2238      H2241   1.046       .  S
N2238      H2242   1.045       .  S
C2247      C2248   1.414       .  A
C2247      C2252   1.407       .  A
C2248      C2249   1.406       .  A
C2248      N2253   1.432       .  S
C2249      C2250   1.404       .  A
C2249      H2254   1.084       .  S
C2250      C2255   1.493       .  S
C2250      C2251   1.412       .  A
C2251      C2252   1.409       .  A
C2251      N2256   1.438       .  S
C2252      H2257   1.083       .  S
N2253      H2273   1.046       .  S
N2253      H2274   1.046       .  S
C2255      C2258   1.400       .  A
C2255      C2262   1.413       .  A
N2256      H2271   1.046       .  S
N2256      H2272   1.046       .  S
C2258      C2259   1.401       .  A
C2258      H2263   1.084       .  S
C2259      C2260   1.413       .  A
C2259      N2264   1.430       .  S
C2260      C2261   1.408       .  A
C2261      C2262   1.414       .  A
C2261      H2265   1.083       .  S
C2262      N2266   1.437       .  S
N2264      H2267   1.046       .  S
N2264      H2268   1.043       .  S
N2266      H2269   1.046       .  S
N2266      H2270   1.045       .  S
C2275      C2276   1.415       .  A
C2275      C2280   1.406       .  A
C2276      C2277   1.411       .  A
C2276      N2281   1.432       .  S
C2277      C2278   1.405       .  A
C2277      H2282   1.084       .  S
C2278      C2283   1.489       .  S
C2278      C2279   1.412       .  A
C2279      C2280   1.397       .  A
C2279      N2284   1.433       .  S
C2280      H2285   1.081       .  S
N2281      H2301   1.046       .  S
N2281      H2302   1.046       .  S
C2283      C2286   1.402       .  A
C2283      C2290   1.411       .  A
N2284      H2299   1.044       .  S
N2284      H2300   1.046       .  S
C2286      C2287   1.407       .  A
C2286      H2291   1.084       .  S
C2287      C2288   1.414       .  A
C2287      N2292   1.438       .  S
C2288      C2289   1.406       .  A
C2289      C2290   1.409       .  A
C2289      H2293   1.084       .  S
C2290      N2294   1.437       .  S
N2292      H2295   1.046       .  S
N2292      H2296   1.045       .  S
N2294      H2297   1.045       .  S
N2294      H2298   1.045       .  S
C2303      C2304   1.415       .  A
C2303      C2308   1.408       .  A
C2304      C2305   1.415       .  A
C2304      N2309   1.437       .  S
C2305      C2306   1.405       .  A
C2305      H2310   1.083       .  S
C2306      C2311   1.482       .  S
C2306      C2307   1.407       .  A
C2307      C2308   1.391       .  A
C2307      N2312   1.433       .  S
C2308      H2313   1.084       .  S
N2309      H2329   1.046       .  S
N2309      H2330   1.046       .  S
C2311      C2314   1.405       .  A
C2311      C2318   1.410       .  A
N2312      H2327   1.045       .  S
N2312      H2328   1.045       .  S
C2314      C2315   1.410       .  A
C2314      H2319   1.084       .  S
C2315      C2316   1.413       .  A
C2315      N2320   1.431       .  S
C2316      C2317   1.413       .  A
C2317      C2318   1.399       .  A
C2317      H2321   1.083       .  S
C2318      N2322   1.439       .  S
N2320      H2323   1.046       .  S
N2320      H2324   1.046       .  S
N2322      H2325   1.046       .  S
N2322      H2326   1.043       .  S
C2331      C2332   1.418       .  A
C2331      C2336   1.411       .  A
C2332      C2333   1.412       .  A
C2332      N2337   1.437       .  S
C2333      C2334   1.404       .  A
C2333      H2338   1.084       .  S
C2334      C2339   1.488       .  S
C2334      C2335   1.407       .  A
C2335      C2336   1.407       .  A
C2335      N2340   1.438       .  S
C2336      H2341   1.083       .  S
N2337      H2357   1.046       .  S
N2337      H2358   1.046       .  S
C2339      C2342   1.406       .  A
C2339      C2346   1.406       .  A
N2340      H2355   1.046       .  S
N2340      H2356   1.044       .  S
C2342      C2343   1.415       .  A
C2342      H2347   1.083       .  S
C2343      C2344   1.413       .  A
C2343      N2348   1.437       .  S
C2344      C2345   1.401       .  A
C2345      C2346   1.400       .  A
C2345      H2349   1.075       .  S
C2346      N2350   1.433       .  S
N2348      H2351   1.045       .  S
N2348      H2352   1.046       .  S
N2350      H2353   1.046       .  S
N2350      H2354   1.046       .  S
