geometry optimzed in LAMMPS
_audit_creation_date              2020-11-30 
_audit_creation_method            'lammps2cif' 
_symmetry_space_group_name_H-M    'P1' 
_symmetry_Int_Tables_number       1 
_symmetry_cell_setting            triclinic 
loop_ 
_symmetry_equiv_pos_as_xyz 
  x,y,z 
_cell_length_a                    25.58531813 
_cell_length_b                    26.973179368646065 
_cell_length_c                    24.345949301960385 
_cell_angle_alpha                 124.04379580560877 
_cell_angle_beta                  85.6600161705264 
_cell_angle_gamma                 85.55670036471021 
loop_ 
_atom_site_label 
_atom_site_type_symbol 
_atom_site_fract_x 
_atom_site_fract_y 
_atom_site_fract_z 
_atom_site_charge 
N1          N  0.98501340  0.17304616  0.28174861    -0.02100
C2          C  0.49163035  0.22917143  0.29945587     0.00500
C3          C  0.50673001  0.26182505  0.36261878    -0.22400
C4          C  0.50922195  0.22394776  0.38410467    -0.22600
C5          C  0.99530004  0.16973996  0.33351903     0.00400
H6          H  0.51483522  0.30803781  0.39013231     0.14200
H7          H  0.51999764  0.23479968  0.43138875     0.14200
N8          N  0.46880986  0.37655188  0.15407258    -0.02100
C9          C  0.46251886  0.32022707  0.13604668     0.00500
C10         C  0.45078178  0.28622493  0.07123713    -0.22400
C11         C  0.45030394  0.32324460  0.04872165    -0.22600
C12         C  0.46183299  0.37835181  0.10051646     0.00400
H13         H  0.44412196  0.23948528  0.04309377     0.14200
H14         H  0.44226689  0.31131574  0.00004759     0.14200
N15         N  0.10176579  0.46245956  0.45337901    -0.02100
C16         C  0.15320295  0.94673314  0.45525043     0.00500
C17         C  0.18125939  0.91685910  0.39098385    -0.22400
C18         C  0.14715814  0.41694610  0.35023390    -0.22600
C19         C  0.09897524  0.44572116  0.38978001     0.00400
H20         H  0.22367385  0.90420892  0.37660128     0.14200
H21         H  0.15770146  0.40303163  0.29913980     0.14200
N22         N  0.34844628  0.08021961  0.03286944    -0.02100
C23         C  0.29508336  0.09281195  0.05334920     0.00500
C24         C  0.26656732  0.11781287  0.52739501    -0.22400
C25         C  0.30511668  0.11981761  0.48681563    -0.22600
C26         C  0.35198407  0.09453642  0.49116147     0.00400
H27         H  0.22452912  0.12744982  0.52829698     0.14200
H28         H  0.29874137  0.13240131  0.45245467     0.14200
In29       In  0.47331736  0.02749078  0.09489601     1.36900
C30         C  0.39018987  0.06302534  0.05834854     0.79000
O31         O  0.44310578  0.09181685  0.20422974    -0.59500
O32         O  0.01216164  0.10764369  0.16520669    -0.50400
C33         C  0.46517312  0.43123772  0.09761444     0.71600
O34         O  0.45569089  0.43185216  0.04783282    -0.45200
C35         C  0.06060770  0.48785590  0.00477676     0.76300
O36         O  0.38703756  0.02758464  0.07634005    -0.57100
O37         O  0.06188567  0.99184889  0.05874770    -0.47200
O38         O  0.43400813  0.08237603  0.06334981    -0.53100
C39         C  0.47983683  0.12330030  0.21575226     0.86500
O40         O  0.97836685  0.47945368  0.14468970    -0.55400
O41         O  0.01562273  0.50447177  0.99823086    -0.58700
In42       In  0.48094170  0.02158782  0.34201286     1.36900
C43         C  0.39853194  0.07045995  0.43915919     0.79000
O44         O  0.44148813  0.44213560  0.27095276    -0.59500
O45         O  0.51019030  0.45873998  0.23197139    -0.50400
C46         C  0.99187226  0.11656421  0.33623511     0.71600
O47         O  0.46766228  0.07403563  0.29737361    -0.45200
C48         C  0.05699543  0.97066922  0.37040862     0.76300
O49         O  0.39382114  0.04937304  0.37899149    -0.57100
O50         O  0.01021962  0.45921141  0.37025230    -0.47200
O51         O  0.44556459  0.56737149  0.44989264    -0.53500
C52         C  0.47370892  0.42671936  0.22029954     0.86500
O53         O  0.01162891  0.11047436  0.37844364    -0.55400
O54         O  0.06517914  0.00675426  0.35427686    -0.58700
C55         C  0.18178876  0.97795164  0.51501368    -0.04100
C56         C  0.16995378  0.04159746  0.06298793    -0.31500
C57         C  0.20782790  0.08002484  0.09340220     0.37700
C58         C  0.26219684  0.05736661  0.06870006    -0.04400
C59         C  0.27292151  0.49179482  0.53511118    -0.31400
C60         C  0.23426139  0.45321558  0.50924040     0.37700
H61         H  0.12966120  0.06225874  0.07129733     0.18000
O62         O  0.19143196  0.14116533  0.13546454    -0.58900
H63         H  0.31391755  0.47163522  0.51696619     0.18000
O64         O  0.24888384  0.39150511  0.47088890    -0.59000
H65         H  0.27814819  0.38198001  0.43585312     0.45000
H66         H  0.19142279  0.15092436  0.18123809     0.45000
C67         C  0.48362594  0.25230065  0.25744644    -0.04100
C68         C  0.02295348  0.28078831  0.24704476    -0.31500
C69         C  0.01669833  0.30271503  0.20722476     0.37700
C70         C  0.47012131  0.29714735  0.17802620    -0.04400
C71         C  0.43086553  0.26843939  0.18808865    -0.31400
C72         C  0.43723726  0.24611672  0.22755360     0.37700
H73         H  0.05917109  0.28494664  0.26875271     0.18000
O74         O  0.05761003  0.32595741  0.19347054    -0.58900
H75         H  0.39479499  0.26406565  0.16604055     0.18000
O76         O  0.39677622  0.22143130  0.23976164    -0.59000
H77         H  0.39292156  0.18478052  0.19556630     0.45000
H78         H  0.06170091  0.36318614  0.23693044     0.45000
N79         N  0.98839440  0.17224134  0.78057351    -0.02100
C80         C  0.49631166  0.22774940  0.79742567     0.00500
C81         C  0.51390529  0.25953715  0.85914664    -0.22400
C82         C  0.51668530  0.22169124  0.88064022    -0.22600
C83         C  0.00057778  0.16838071  0.83135264     0.00400
H84         H  0.52341754  0.30517162  0.88572406     0.14200
H85         H  0.52905220  0.23199631  0.92706065     0.14200
N86         N  0.46852011  0.37622871  0.65443913    -0.02100
C87         C  0.46186524  0.32009801  0.63662793     0.00500
C88         C  0.44736137  0.28710100  0.57318818    -0.22400
C89         C  0.44562446  0.32458113  0.55127543    -0.22600
C90         C  0.45905223  0.37894957  0.60212610     0.00400
H91         H  0.43959591  0.24076224  0.54557011     0.14200
H92         H  0.43528474  0.31354044  0.50374943     0.14200
N93         N  0.10558915  0.46291342  0.95265346    -0.02100
C94         C  0.15708423  0.94729303  0.95460369     0.00500
C95         C  0.18516832  0.91718834  0.89030474    -0.22400
C96         C  0.15124831  0.41739466  0.84953356    -0.22600
C97         C  0.10306198  0.44622542  0.88895810     0.00400
H98         H  0.22758005  0.90457635  0.87591887     0.14200
H99         H  0.16190835  0.40343282  0.79843831     0.14200
N100        N  0.34385533  0.07812989  0.53436765    -0.02100
C101        C  0.29050411  0.08972124  0.55460921     0.00500
C102        C  0.27192008  0.12219784  0.02707512    -0.22400
C103        C  0.31083552  0.12372132  0.98650739    -0.22600
C104        C  0.35716613  0.09689710  0.98997857     0.00400
H105        H  0.23002243  0.13279619  0.02817168     0.14200
H106        H  0.30491862  0.13690326  0.95256537     0.14200
In107      In  0.47029471  0.02772256  0.59607598     1.36900
C108        C  0.38600502  0.06193475  0.56007264     0.79000
O109        O  0.44234343  0.09404280  0.70583292    -0.59500
O110        O  0.01282957  0.10500639  0.66383780    -0.50400
C111        C  0.46184377  0.43202362  0.59954605     0.71600
O112        O  0.45625801  0.43100886  0.54787113    -0.45200
C113        C  0.05704036  0.48779998  0.50568620     0.76300
O114        O  0.38504474  0.02345758  0.57389971    -0.57100
O115        O  0.05767152  0.98830618  0.55768222    -0.47200
O116        O  0.42824809  0.08477523  0.56866231    -0.53100
C117        C  0.48083295  0.12295954  0.71544003     0.86500
O118        O  0.97073381  0.48192743  0.64864590    -0.55400
O119        O  0.01291849  0.50824622  0.50115400    -0.58700
In120      In  0.48531523  0.02092036  0.83985691     1.36900
C121        C  0.40341567  0.07184535  0.93745325     0.79000
O122        O  0.44447496  0.44200934  0.77166782    -0.59500
O123        O  0.51248529  0.45691565  0.72952539    -0.50400
C124        C  0.99701025  0.11534850  0.83402681     0.71600
O125        O  0.47210857  0.07339019  0.79563758    -0.45200
C126        C  0.06120552  0.97073926  0.86897922     0.76300
O127        O  0.39850226  0.05229320  0.87771962    -0.57100
O128        O  0.01406039  0.46085267  0.87092784    -0.47200
O129        O  0.45034656  0.56616916  0.94726863    -0.53500
C130        C  0.47556108  0.42579201  0.71987960     0.86500
O131        O  0.01737496  0.10876365  0.87556963    -0.55400
O132        O  0.06995058  0.00459553  0.84981975    -0.58700
C133        C  0.18587905  0.97949728  0.01403412    -0.04100
C134        C  0.16607163  0.03986306  0.56512044    -0.31500
C135        C  0.20415949  0.07760434  0.59686147     0.37700
C136        C  0.25841443  0.05475963  0.57157219    -0.04400
C137        C  0.27708620  0.49451171  0.03295634    -0.31400
C138        C  0.23867925  0.45546976  0.00818483     0.37700
H139        H  0.12591699  0.06100621  0.57370701     0.18000
O140        O  0.18826294  0.13872711  0.64037607    -0.58900
H141        H  0.31814094  0.47460055  0.01474218     0.18000
O142        O  0.25380759  0.39383576  0.97050010    -0.59000
H143        H  0.28310122  0.38419346  0.93539873     0.45000
H144        H  0.18271754  0.14623951  0.68535969     0.45000
C145        C  0.48711163  0.25106769  0.75595893    -0.04100
C146        C  0.02657207  0.27794935  0.74304702    -0.31500
C147        C  0.01893671  0.30044834  0.70403717     0.37700
C148        C  0.47105890  0.29648585  0.67770930    -0.04400
C149        C  0.43172171  0.26928524  0.69021486    -0.31400
C150        C  0.43930448  0.24682140  0.72928317     0.37700
H151        H  0.06376679  0.28073251  0.76247972     0.18000
O152        O  0.05947423  0.32313859  0.68872339    -0.58900
H153        H  0.39459667  0.26642212  0.67061155     0.18000
O154        O  0.39870261  0.22413254  0.74451227    -0.59000
H155        H  0.39255258  0.18809463  0.70112984     0.45000
H156        H  0.06465517  0.36007408  0.73187954     0.45000
N157        N  0.98501339  0.67304740  0.28174977    -0.02100
C158        C  0.49163131  0.72917254  0.29945674     0.00500
C159        C  0.50673122  0.76182638  0.36261945    -0.22400
C160        C  0.50922241  0.72394883  0.38410509    -0.22600
C161        C  0.99529990  0.66974112  0.33352006     0.00400
H162        H  0.51483766  0.80803868  0.39013233     0.14200
H163        H  0.51999740  0.73480062  0.43138936     0.14200
N164        N  0.46881002  0.87655131  0.15407232    -0.02100
C165        C  0.46251970  0.82022631  0.13604641     0.00500
C166        C  0.45078291  0.78622375  0.07123680    -0.22400
C167        C  0.45030489  0.82324334  0.04872110    -0.22600
C168        C  0.46183328  0.87835091  0.10051596     0.00400
H169        H  0.44412376  0.73948388  0.04309356     0.14200
H170        H  0.44226804  0.81131453  0.00004696     0.14200
N171        N  0.10176618  0.96245999  0.45338096    -0.02100
C172        C  0.15320254  0.44673201  0.45524798     0.00500
C173        C  0.18125871  0.41685742  0.39098106    -0.22400
C174        C  0.14715909  0.91694731  0.35023624    -0.22600
C175        C  0.09897597  0.94572160  0.38978181     0.00400
H176        H  0.22367313  0.40420719  0.37659801     0.14200
H177        H  0.15770270  0.90303358  0.29914245     0.14200
N178        N  0.34844671  0.58021988  0.03286918    -0.02100
C179        C  0.29508366  0.59281193  0.05334848     0.00500
C180        C  0.26656586  0.61781235  0.52739523    -0.22400
C181        C  0.30511540  0.61981715  0.48681607    -0.22600
C182        C  0.35198288  0.59453566  0.49116127     0.00400
H183        H  0.22452770  0.62744876  0.52829639     0.14200
H184        H  0.29874043  0.63240147  0.45245555     0.14200
In185      In  0.47331726  0.52749179  0.09489703     1.36900
C186        C  0.39019017  0.56302624  0.05834900     0.79000
O187        O  0.44310537  0.59181827  0.20423069    -0.59500
O188        O  0.01216147  0.60764466  0.16520782    -0.50400
C189        C  0.46517322  0.93123674  0.09761359     0.71600
O190        O  0.45569162  0.93185075  0.04783150    -0.45200
C191        C  0.06060795  0.98785500  0.00477579     0.76300
O192        O  0.38703768  0.52758554  0.07634046    -0.57100
O193        O  0.06188580  0.49185145  0.05874952    -0.47200
O194        O  0.43400841  0.58237724  0.06335081    -0.53100
C195        C  0.47983669  0.62330141  0.21575336     0.86500
O196        O  0.97836632  0.97945307  0.14468904    -0.55400
O197        O  0.01562332  0.00447254  0.99823081    -0.58700
In198      In  0.48094067  0.52158851  0.34201300     1.36900
C199        C  0.39853090  0.57045981  0.43915910     0.79000
O200        O  0.44148903  0.94213490  0.27095283    -0.59500
O201        O  0.51019052  0.95873956  0.23197093    -0.50400
C202        C  0.99187184  0.61656519  0.33623598     0.71600
O203        O  0.46766245  0.57403622  0.29737352    -0.45200
C204        C  0.05699470  0.47066948  0.37040764     0.76300
O205        O  0.39382020  0.54937524  0.37899188    -0.57100
O206        O  0.01022021  0.95921159  0.37025386    -0.47200
O207        O  0.44556568  0.06737353  0.44989314    -0.53500
C208        C  0.47370921  0.92671892  0.22029926     0.86500
O209        O  0.01162732  0.61047564  0.37844532    -0.55400
O210        O  0.06517821  0.50675558  0.35427734    -0.58700
C211        C  0.18178837  0.47795036  0.51501117    -0.04100
C212        C  0.16995377  0.54159872  0.06298863    -0.31500
C213        C  0.20782821  0.58002581  0.09340258     0.37700
C214        C  0.26219711  0.55736705  0.06870025    -0.04400
C215        C  0.27292200  0.99179627  0.53511286    -0.31400
C216        C  0.23426174  0.95321694  0.50924307     0.37700
H217        H  0.12966136  0.56226045  0.07129804     0.18000
O218        O  0.19143279  0.64116628  0.13546393    -0.58900
H219        H  0.31391800  0.97163668  0.51696759     0.18000
O220        O  0.24888437  0.89150635  0.47089197    -0.59000
H221        H  0.27814762  0.88198136  0.43585653     0.45000
H222        H  0.19141845  0.65092597  0.18124145     0.45000
C223        C  0.48362693  0.75230154  0.25744732    -0.04100
C224        C  0.02295464  0.78078838  0.24704501    -0.31500
C225        C  0.01669917  0.80271474  0.20722476     0.37700
C226        C  0.47012219  0.79714705  0.17802629    -0.04400
C227        C  0.43086593  0.76844006  0.18808957    -0.31400
C228        C  0.43723775  0.74611781  0.22755492     0.37700
H229        H  0.05917230  0.78494663  0.26875297     0.18000
O230        O  0.05761059  0.82595761  0.19347095    -0.58900
H231        H  0.39479513  0.76406686  0.16604189     0.18000
O232        O  0.39677652  0.72143345  0.23976442    -0.59000
H233        H  0.39292085  0.68478151  0.19556823     0.45000
H234        H  0.06170068  0.86318506  0.23692982     0.45000
N235        N  0.98839408  0.67224120  0.78057322    -0.02100
C236        C  0.49631088  0.72774963  0.79742613     0.00500
C237        C  0.51390416  0.75953727  0.85914733    -0.22400
C238        C  0.51668467  0.72169084  0.88064030    -0.22600
C239        C  0.00057761  0.66838013  0.83135207     0.00400
H240        H  0.52341612  0.80517185  0.88572478     0.14200
H241        H  0.52905159  0.73199540  0.92706054     0.14200
N242        N  0.46851888  0.87622942  0.65444033    -0.02100
C243        C  0.46186490  0.82009840  0.63662869     0.00500
C244        C  0.44736168  0.78710084  0.57318861    -0.22400
C245        C  0.44562447  0.82458110  0.55127603    -0.22600
C246        C  0.45905137  0.87894992  0.60212705     0.00400
H247        H  0.43959700  0.74076179  0.54557032     0.14200
H248        H  0.43528478  0.81354068  0.50375016     0.14200
N249        N  0.10558936  0.96291277  0.95265236    -0.02100
C250        C  0.15708400  0.44729405  0.95460510     0.00500
C251        C  0.18516814  0.41718878  0.89030620    -0.22400
C252        C  0.15124856  0.91739499  0.84953241    -0.22600
C253        C  0.10306219  0.94622561  0.88895722     0.00400
H254        H  0.22757987  0.40457691  0.87592041     0.14200
H255        H  0.16190877  0.90343361  0.79843738     0.14200
N256        N  0.34385424  0.57812880  0.53436702    -0.02100
C257        C  0.29050297  0.58972028  0.55460883     0.00500
C258        C  0.27192029  0.62219723  0.02707372    -0.22400
C259        C  0.31083595  0.62372056  0.98650602    -0.22600
C260        C  0.35716667  0.59689682  0.98997785     0.00400
H261        H  0.23002257  0.63279495  0.02816974     0.14200
H262        H  0.30491912  0.63690123  0.95256287     0.14200
In263      In  0.47029478  0.52772258  0.59607503     1.36900
C264        C  0.38600421  0.56193390  0.56007180     0.79000
O265        O  0.44234405  0.59404159  0.70583232    -0.59500
O266        O  0.01282873  0.60500747  0.66383709    -0.50400
C267        C  0.46184272  0.93202392  0.59954699     0.71600
O268        O  0.45625824  0.93100880  0.54787162    -0.45200
C269        C  0.05704058  0.98780004  0.50568785     0.76300
O270        O  0.38504528  0.52345505  0.57389649    -0.57100
O271        O  0.05767139  0.48830518  0.55767995    -0.47200
O272        O  0.42824627  0.58477645  0.56866376    -0.53100
C273        C  0.48083262  0.62295968  0.71543946     0.86500
O274        O  0.97073192  0.98192799  0.64864714    -0.55400
O275        O  0.01291847  0.00824470  0.50115447    -0.58700
In276      In  0.48531578  0.52091941  0.83985594     1.36900
C277        C  0.40341629  0.57184455  0.93745251     0.79000
O278        O  0.44447435  0.94200991  0.77166927    -0.59500
O279        O  0.51248382  0.95691690  0.72952617    -0.50400
C280        C  0.99701072  0.61534745  0.83402564     0.71600
O281        O  0.47210787  0.57338998  0.79563776    -0.45200
C282        C  0.06120555  0.47073857  0.86897930     0.76300
O283        O  0.39850292  0.55229265  0.87771899    -0.57100
O284        O  0.01406052  0.96085286  0.87092749    -0.47200
O285        O  0.45034591  0.06617003  0.94726948    -0.53500
C286        C  0.47555998  0.92579284  0.71988077     0.86500
O287        O  0.01737664  0.60876178  0.87556728    -0.55400
O288        O  0.06995101  0.50459407  0.84981888    -0.58700
C289        C  0.18587861  0.47949844  0.01403550    -0.04100
C290        C  0.16607105  0.53986155  0.56511827    -0.31500
C291        C  0.20415861  0.57760292  0.59686018     0.37700
C292        C  0.25841372  0.55475813  0.57157105    -0.04400
C293        C  0.27708640  0.99451122  0.03295568    -0.31400
C294        C  0.23867967  0.95546902  0.00818364     0.37700
H295        H  0.12591652  0.56100481  0.57370454     0.18000
O296        O  0.18826191  0.63872560  0.64037397    -0.58900
H297        H  0.31814111  0.97460050  0.01474181     0.18000
O298        O  0.25380895  0.89383496  0.97049724    -0.59000
H299        H  0.28310004  0.88419518  0.93539971     0.45000
H300        H  0.18272082  0.64624072  0.68536435     0.45000
C301        C  0.48711074  0.75106845  0.75595997    -0.04100
C302        C  0.02657089  0.77795037  0.74304836    -0.31500
C303        C  0.01893567  0.80044958  0.70403876     0.37700
C304        C  0.47105830  0.79648668  0.67771030    -0.04400
C305        C  0.43172110  0.76928621  0.69021588    -0.31400
C306        C  0.43930341  0.74682251  0.72928446     0.37700
H307        H  0.06376519  0.78073411  0.76248202     0.18000
O308        O  0.05947331  0.82314056  0.68872613    -0.58900
H309        H  0.39459592  0.76642318  0.67061254     0.18000
O310        O  0.39870143  0.72413516  0.74451511    -0.59000
H311        H  0.39255020  0.68809067  0.70112666     0.45000
H312        H  0.06465344  0.86007483  0.73188120     0.45000
N313        N  0.48501336  0.17304616  0.28174861    -0.02100
C314        C  0.99163044  0.22917143  0.29945588     0.00500
C315        C  0.00673001  0.26182507  0.36261883    -0.22400
C316        C  0.00922195  0.22394776  0.38410469    -0.22600
C317        C  0.49530001  0.16973997  0.33351904     0.00400
H318        H  0.01483517  0.30803786  0.39013240     0.14200
H319        H  0.01999758  0.23479971  0.43138880     0.14200
N320        N  0.96880990  0.37655186  0.15407259    -0.02100
C321        C  0.96251889  0.32022708  0.13604673     0.00500
C322        C  0.95078186  0.28622495  0.07123713    -0.22400
C323        C  0.95030396  0.32324461  0.04872161    -0.22600
C324        C  0.96183302  0.37835179  0.10051645     0.00400
H325        H  0.94412199  0.23948533  0.04309372     0.14200
H326        H  0.94226684  0.31131578  0.00004757     0.14200
N327        N  0.60176581  0.46245938  0.45337883    -0.02100
C328        C  0.65320315  0.94673304  0.45525032     0.00500
C329        C  0.68125962  0.91685898  0.39098365    -0.22400
C330        C  0.64715832  0.41694594  0.35023329    -0.22600
C331        C  0.59897543  0.44572106  0.38977971     0.00400
H332        H  0.72367405  0.90420863  0.37660071     0.14200
H333        H  0.65770153  0.40303139  0.29913911     0.14200
N334        N  0.84844633  0.08021961  0.03286939    -0.02100
C335        C  0.79508340  0.09281201  0.05334917     0.00500
C336        C  0.76656729  0.11781279  0.52739492    -0.22400
C337        C  0.80511669  0.11981764  0.48681564    -0.22600
C338        C  0.85198408  0.09453646  0.49116155     0.00400
H339        H  0.72452909  0.12744983  0.52829692     0.14200
H340        H  0.79874138  0.13240146  0.45245476     0.14200
In341      In  0.97331739  0.02749078  0.09489601     1.36900
C342        C  0.89018992  0.06302542  0.05834853     0.79000
O343        O  0.94310581  0.09181683  0.20422974    -0.59500
O344        O  0.51216162  0.10764367  0.16520670    -0.50400
C345        C  0.96517316  0.43123771  0.09761443     0.71600
O346        O  0.95569094  0.43185217  0.04783281    -0.45200
C347        C  0.56060764  0.48785581  0.00477680     0.76300
O348        O  0.88703759  0.02758471  0.07634000    -0.57100
O349        O  0.56188560  0.99184883  0.05874765    -0.47200
O350        O  0.93400821  0.08237607  0.06334979    -0.53100
C351        C  0.97983684  0.12330030  0.21575225     0.86500
O352        O  0.47836680  0.47945370  0.14468972    -0.55400
O353        O  0.51562273  0.50447189  0.99823102    -0.58700
In354      In  0.98094159  0.02158783  0.34201287     1.36900
C355        C  0.89853197  0.07045999  0.43915926     0.79000
O356        O  0.94148815  0.44213555  0.27095274    -0.59500
O357        O  0.01019030  0.45873998  0.23197138    -0.50400
C358        C  0.49187229  0.11656424  0.33623513     0.71600
O359        O  0.96766222  0.07403564  0.29737357    -0.45200
C360        C  0.55699553  0.97066922  0.37040866     0.76300
O361        O  0.89382105  0.04937306  0.37899157    -0.57100
O362        O  0.51021972  0.45921140  0.37025232    -0.47200
O363        O  0.94556456  0.56737136  0.44989258    -0.53500
C364        C  0.97370893  0.42671935  0.22029954     0.86500
O365        O  0.51162901  0.11047440  0.37844364    -0.55400
O366        O  0.56517932  0.00675421  0.35427684    -0.58700
C367        C  0.68178881  0.97795154  0.51501364    -0.04100
C368        C  0.66995378  0.04159726  0.06298772    -0.31500
C369        C  0.70782791  0.08002479  0.09340188     0.37700
C370        C  0.76219689  0.05736648  0.06869980    -0.04400
C371        C  0.77292131  0.49179479  0.53511130    -0.31400
C372        C  0.73426120  0.45321559  0.50924050     0.37700
H373        H  0.62966120  0.06225854  0.07129720     0.18000
O374        O  0.69143196  0.14116510  0.13546344    -0.58900
H375        H  0.81391732  0.47163511  0.51696606     0.18000
O376        O  0.74888384  0.39150508  0.47088889    -0.59000
H377        H  0.77814809  0.38198021  0.43585328     0.45000
H378        H  0.69142380  0.15092604  0.18124194     0.45000
C379        C  0.98362615  0.25230068  0.25744647    -0.04100
C380        C  0.52295322  0.28078826  0.24704473    -0.31500
C381        C  0.51669815  0.30271503  0.20722475     0.37700
C382        C  0.97012143  0.29714730  0.17802621    -0.04400
C383        C  0.93086565  0.26843937  0.18808865    -0.31400
C384        C  0.93723739  0.24611674  0.22755363     0.37700
H385        H  0.55917055  0.28494705  0.26875339     0.18000
O386        O  0.55760994  0.32595737  0.19347058    -0.58900
H387        H  0.89479512  0.26406562  0.16604053     0.18000
O388        O  0.89677633  0.22143134  0.23976166    -0.59000
H389        H  0.89292165  0.18478058  0.19556633     0.45000
H390        H  0.56170087  0.36318613  0.23693060     0.45000
N391        N  0.48839437  0.17224136  0.78057348    -0.02100
C392        C  0.99631168  0.22774937  0.79742568     0.00500
C393        C  0.01390528  0.25953717  0.85914666    -0.22400
C394        C  0.01668529  0.22169130  0.88064029    -0.22600
C395        C  0.50057774  0.16838069  0.83135257     0.00400
H396        H  0.02341748  0.30517165  0.88572409     0.14200
H397        H  0.02905214  0.23199643  0.92706077     0.14200
N398        N  0.96852010  0.37622876  0.65443915    -0.02100
C399        C  0.96186526  0.32009805  0.63662794     0.00500
C400        C  0.94736142  0.28710099  0.57318809    -0.22400
C401        C  0.94562446  0.32458105  0.55127521    -0.22600
C402        C  0.95905225  0.37894952  0.60212600     0.00400
H403        H  0.93959604  0.24076221  0.54557007     0.14200
H404        H  0.93528432  0.31354041  0.50374937     0.14200
N405        N  0.60558902  0.46291352  0.95265358    -0.02100
C406        C  0.65708384  0.94729305  0.95460394     0.00500
C407        C  0.68516771  0.91718831  0.89030506    -0.22400
C408        C  0.65124801  0.41739472  0.84953363    -0.22600
C409        C  0.60306184  0.44622555  0.88895820     0.00400
H410        H  0.72757942  0.90457615  0.87591905     0.14200
H411        H  0.66190829  0.40343285  0.79843840     0.14200
N412        N  0.84385527  0.07812981  0.53436764    -0.02100
C413        C  0.79050405  0.08972134  0.55460937     0.00500
C414        C  0.77192014  0.12219788  0.02707500    -0.22400
C415        C  0.81083567  0.12372127  0.98650727    -0.22600
C416        C  0.85716617  0.09689707  0.98997853     0.00400
H417        H  0.73002250  0.13279610  0.02817133     0.14200
H418        H  0.80491911  0.13690313  0.95256510     0.14200
In419      In  0.97029468  0.02772259  0.59607598     1.36900
C420        C  0.88600499  0.06193462  0.56007257     0.79000
O421        O  0.94234344  0.09404278  0.70583294    -0.59500
O422        O  0.51282956  0.10500638  0.66383779    -0.50400
C423        C  0.96184380  0.43202360  0.59954603     0.71600
O424        O  0.95625805  0.43100885  0.54787112    -0.45200
C425        C  0.55704036  0.48779991  0.50568615     0.76300
O426        O  0.88504470  0.02345749  0.57389974    -0.57100
O427        O  0.55767156  0.98830626  0.55768234    -0.47200
O428        O  0.92824803  0.08477518  0.56866220    -0.53100
C429        C  0.98083296  0.12295952  0.71544005     0.86500
O430        O  0.47073379  0.48192745  0.64864590    -0.55400
O431        O  0.51291849  0.50824620  0.50115400    -0.58700
In432      In  0.98531527  0.02092048  0.83985709     1.36900
C433        C  0.90341563  0.07184536  0.93745328     0.79000
O434        O  0.94447497  0.44200941  0.77166797    -0.59500
O435        O  0.01248526  0.45691582  0.72952560    -0.50400
C436        C  0.49701029  0.11534836  0.83402658     0.71600
O437        O  0.97210873  0.07339017  0.79563772    -0.45200
C438        C  0.56120538  0.97073923  0.86897918     0.76300
O439        O  0.89850224  0.05229317  0.87771964    -0.57100
O440        O  0.51406036  0.46085265  0.87092773    -0.47200
O441        O  0.95034652  0.56616955  0.94726893    -0.53500
C442        C  0.97556107  0.42579211  0.71987973     0.86500
O443        O  0.51737510  0.10876340  0.87556929    -0.55400
O444        O  0.56995062  0.00459542  0.84981963    -0.58700
C445        C  0.68587901  0.97949720  0.01403408    -0.04100
C446        C  0.66607161  0.03986295  0.56512037    -0.31500
C447        C  0.70415942  0.07760431  0.59686142     0.37700
C448        C  0.75841433  0.05475967  0.57157222    -0.04400
C449        C  0.77708622  0.49451171  0.03295633    -0.31400
C450        C  0.73867926  0.45546976  0.00818477     0.37700
H451        H  0.62591693  0.06100597  0.57370686     0.18000
O452        O  0.68826287  0.13872708  0.64037601    -0.58900
H453        H  0.81814097  0.47460054  0.01474219     0.18000
O454        O  0.75380762  0.39383576  0.97050006    -0.59000
H455        H  0.78310117  0.38419345  0.93539860     0.45000
H456        H  0.68271763  0.14623948  0.68535944     0.45000
C457        C  0.98711169  0.25106766  0.75595896    -0.04100
C458        C  0.52657200  0.27794935  0.74304699    -0.31500
C459        C  0.51893661  0.30044831  0.70403714     0.37700
C460        C  0.97105908  0.29648591  0.67770935    -0.04400
C461        C  0.93172197  0.26928531  0.69021493    -0.31400
C462        C  0.93930460  0.24682141  0.72928324     0.37700
H463        H  0.56376672  0.28073247  0.76247969     0.18000
O464        O  0.55947418  0.32313856  0.68872339    -0.58900
H465        H  0.89459721  0.26642182  0.67061099     0.18000
O466        O  0.89870263  0.22413255  0.74451224    -0.59000
H467        H  0.89255262  0.18809461  0.70112979     0.45000
H468        H  0.56465515  0.36007405  0.73187953     0.45000
N469        N  0.48501337  0.67304737  0.28174969    -0.02100
C470        C  0.99163126  0.72917258  0.29945684     0.00500
C471        C  0.00673127  0.76182639  0.36261952    -0.22400
C472        C  0.00922257  0.72394889  0.38410523    -0.22600
C473        C  0.49529973  0.66974110  0.33351998     0.00400
H474        H  0.01483753  0.80803875  0.39013234     0.14200
H475        H  0.01999820  0.73480055  0.43138920     0.14200
N476        N  0.96881018  0.87655127  0.15407227    -0.02100
C477        C  0.96251973  0.82022632  0.13604640     0.00500
C478        C  0.95078294  0.78622377  0.07123680    -0.22400
C479        C  0.95030492  0.82324336  0.04872112    -0.22600
C480        C  0.96183335  0.87835091  0.10051596     0.00400
H481        H  0.94412378  0.73948391  0.04309359     0.14200
H482        H  0.94226806  0.81131454  0.00004698     0.14200
N483        N  0.60176629  0.96245988  0.45338097    -0.02100
C484        C  0.65320248  0.44673195  0.45524787     0.00500
C485        C  0.68125869  0.41685743  0.39098082    -0.22400
C486        C  0.64715917  0.91694732  0.35023628    -0.22600
C487        C  0.59897605  0.94572156  0.38978187     0.00400
H488        H  0.72367311  0.40420729  0.37659813     0.14200
H489        H  0.65770268  0.90303372  0.29914254     0.14200
N490        N  0.84844673  0.58021988  0.03286917    -0.02100
C491        C  0.79508369  0.59281193  0.05334848     0.00500
C492        C  0.76656638  0.61781226  0.52739522    -0.22400
C493        C  0.80511570  0.61981706  0.48681599    -0.22600
C494        C  0.85198305  0.59453563  0.49116121     0.00400
H495        H  0.72452824  0.62744885  0.52829646     0.14200
H496        H  0.79874035  0.63240163  0.45245576     0.14200
In497      In  0.97331729  0.52749181  0.09489702     1.36900
C498        C  0.89019021  0.56302624  0.05834898     0.79000
O499        O  0.94310538  0.59181827  0.20423071    -0.59500
O500        O  0.51216146  0.60764462  0.16520778    -0.50400
C501        C  0.96517326  0.93123675  0.09761359     0.71600
O502        O  0.95569166  0.93185075  0.04783150    -0.45200
C503        C  0.56060775  0.98785504  0.00477581     0.76300
O504        O  0.88703771  0.52758556  0.07634047    -0.57100
O505        O  0.56188574  0.49185125  0.05874947    -0.47200
O506        O  0.93400844  0.58237725  0.06335081    -0.53100
C507        C  0.97983669  0.62330143  0.21575340     0.86500
O508        O  0.47836628  0.97945307  0.14468903    -0.55400
O509        O  0.51562312  0.00447267  0.99823086    -0.58700
In510      In  0.98094068  0.52158851  0.34201299     1.36900
C511        C  0.89853093  0.57045990  0.43915909     0.79000
O512        O  0.94148902  0.94213490  0.27095272    -0.59500
O513        O  0.01019056  0.95873955  0.23197100    -0.50400
C514        C  0.49187177  0.61656518  0.33623596     0.71600
O515        O  0.96766252  0.57403623  0.29737350    -0.45200
C516        C  0.55699479  0.47066944  0.37040759     0.76300
O517        O  0.89382020  0.54937549  0.37899191    -0.57100
O518        O  0.51022031  0.95921160  0.37025384    -0.47200
O519        O  0.94556576  0.06737349  0.44989311    -0.53500
C520        C  0.97370930  0.92671886  0.22029923     0.86500
O521        O  0.51162729  0.61047564  0.37844529    -0.55400
O522        O  0.56517821  0.50675557  0.35427736    -0.58700
C523        C  0.68178809  0.47795048  0.51501122    -0.04100
C524        C  0.66995379  0.54159874  0.06298864    -0.31500
C525        C  0.70782826  0.58002577  0.09340253     0.37700
C526        C  0.76219715  0.55736705  0.06870025    -0.04400
C527        C  0.77292192  0.99179631  0.53511293    -0.31400
C528        C  0.73426173  0.95321692  0.50924307     0.37700
H529        H  0.62966135  0.56226045  0.07129812     0.18000
O530        O  0.69143285  0.64116623  0.13546411    -0.58900
H531        H  0.81391790  0.97163673  0.51696769     0.18000
O532        O  0.74888439  0.89150636  0.47089197    -0.59000
H533        H  0.77814767  0.88198141  0.43585659     0.45000
H534        H  0.69141938  0.65092557  0.18124062     0.45000
C535        C  0.98362695  0.75230153  0.25744735    -0.04100
C536        C  0.52295464  0.78078838  0.24704495    -0.31500
C537        C  0.51669916  0.80271486  0.20722483     0.37700
C538        C  0.97012211  0.79714704  0.17802628    -0.04400
C539        C  0.93086586  0.76844003  0.18808953    -0.31400
C540        C  0.93723770  0.74611782  0.22755494     0.37700
H541        H  0.55917223  0.78494663  0.26875294     0.18000
O542        O  0.55761065  0.82595780  0.19347104    -0.58900
H543        H  0.89479509  0.76406678  0.16604179     0.18000
O544        O  0.89677647  0.72143343  0.23976439    -0.59000
H545        H  0.89292081  0.68478148  0.19556824     0.45000
H546        H  0.56170063  0.86318416  0.23692845     0.45000
N547        N  0.48839403  0.67224125  0.78057325    -0.02100
C548        C  0.99631089  0.72774961  0.79742612     0.00500
C549        C  0.01390414  0.75953726  0.85914732    -0.22400
C550        C  0.01668474  0.72169080  0.88064023    -0.22600
C551        C  0.50057761  0.66838015  0.83135207     0.00400
H552        H  0.02341590  0.80517194  0.88572492     0.14200
H553        H  0.02905151  0.73199547  0.92706058     0.14200
N554        N  0.96851905  0.87622947  0.65444037    -0.02100
C555        C  0.96186495  0.82009846  0.63662879     0.00500
C556        C  0.94736171  0.78710088  0.57318871    -0.22400
C557        C  0.94562452  0.82458112  0.55127608    -0.22600
C558        C  0.95905145  0.87894995  0.60212707     0.00400
H559        H  0.93959705  0.74076183  0.54557048     0.14200
H560        H  0.93528485  0.81354071  0.50375018     0.14200
N561        N  0.60558912  0.96291298  0.95265254    -0.02100
C562        C  0.65708375  0.44729406  0.95460526     0.00500
C563        C  0.68516765  0.41718878  0.89030635    -0.22400
C564        C  0.65124816  0.91739502  0.84953266    -0.22600
C565        C  0.60306191  0.94622568  0.88895736     0.00400
H566        H  0.72757938  0.40457659  0.87592042     0.14200
H567        H  0.66190860  0.90343286  0.79843737     0.14200
N568        N  0.84385441  0.57812861  0.53436685    -0.02100
C569        C  0.79050324  0.58972025  0.55460892     0.00500
C570        C  0.77192031  0.62219723  0.02707373    -0.22400
C571        C  0.81083595  0.62372058  0.98650603    -0.22600
C572        C  0.85716665  0.59689687  0.98997788     0.00400
H573        H  0.73002259  0.63279495  0.02816976     0.14200
H574        H  0.80491912  0.63690126  0.95256290     0.14200
In575      In  0.97029478  0.52772254  0.59607500     1.36900
C576        C  0.88600427  0.56193387  0.56007179     0.79000
O577        O  0.94234394  0.59404178  0.70583227    -0.59500
O578        O  0.51282858  0.60500780  0.66383705    -0.50400
C579        C  0.96184277  0.93202394  0.59954697     0.71600
O580        O  0.95625829  0.93100880  0.54787158    -0.45200
C581        C  0.55704059  0.98779987  0.50568780     0.76300
O582        O  0.88504530  0.52345502  0.57389648    -0.57100
O583        O  0.55767136  0.48830517  0.55767996    -0.47200
O584        O  0.92824629  0.58477646  0.56866376    -0.53100
C585        C  0.98083268  0.62295959  0.71543946     0.86500
O586        O  0.47073188  0.98192796  0.64864716    -0.55400
O587        O  0.51291845  0.00824447  0.50115434    -0.58700
In588      In  0.98531577  0.52091952  0.83985613     1.36900
C589        C  0.90341627  0.57184475  0.93745265     0.79000
O590        O  0.94447458  0.94201004  0.77166939    -0.59500
O591        O  0.01248385  0.95691713  0.72952633    -0.50400
C592        C  0.49701063  0.61534745  0.83402562     0.71600
O593        O  0.97210794  0.57338996  0.79563783    -0.45200
C594        C  0.56120549  0.47073866  0.86897932     0.76300
O595        O  0.89850290  0.55229258  0.87771905    -0.57100
O596        O  0.51406036  0.96085281  0.87092735    -0.47200
O597        O  0.95034584  0.06617013  0.94726954    -0.53500
C598        C  0.97556009  0.92579299  0.71988085     0.86500
O599        O  0.51737659  0.60876165  0.87556714    -0.55400
O600        O  0.56995100  0.50459403  0.84981876    -0.58700
C601        C  0.68587860  0.47949846  0.01403548    -0.04100
C602        C  0.66607061  0.53986174  0.56511834    -0.31500
C603        C  0.70415832  0.57760298  0.59686016     0.37700
C604        C  0.75841359  0.55475808  0.57157097    -0.04400
C605        C  0.77708646  0.99451118  0.03295563    -0.31400
C606        C  0.73867969  0.95546899  0.00818355     0.37700
H607        H  0.62591611  0.56100505  0.57370453     0.18000
O608        O  0.68826182  0.63872562  0.64037397    -0.58900
H609        H  0.81814119  0.97460050  0.01474188     0.18000
O610        O  0.75380897  0.89383498  0.97049722    -0.59000
H611        H  0.78309999  0.88419520  0.93539960     0.45000
H612        H  0.68272084  0.64624071  0.68536434     0.45000
C613        C  0.98711073  0.75106854  0.75596003    -0.04100
C614        C  0.52657085  0.77795036  0.74304835    -0.31500
C615        C  0.51893564  0.80044955  0.70403872     0.37700
C616        C  0.97105830  0.79648678  0.67771042    -0.04400
C617        C  0.93172104  0.76928636  0.69021598    -0.31400
C618        C  0.93930342  0.74682259  0.72928446     0.37700
H619        H  0.56376510  0.78073422  0.76248213     0.18000
O620        O  0.55947329  0.82314053  0.68872613    -0.58900
H621        H  0.89459592  0.76642320  0.67061247     0.18000
O622        O  0.89870151  0.72413515  0.74451500    -0.59000
H623        H  0.89255045  0.68809070  0.70112655     0.45000
H624        H  0.56465344  0.86007479  0.73188121     0.45000
loop_ 
_geom_bond_atom_site_label_1 
_geom_bond_atom_site_label_2 
_geom_bond_distance 
_geom_bond_site_symmetry_2 
_ccdc_geom_bond_type 
N1            C5   1.356       .  A
N1          C314   1.351       .  A
N1          C351   1.430       .  S
C2          N313   1.351       .  A
C2            C3   1.384       .  A
C2           C67   1.484       .  S
C3            C4   1.384       .  A
C3            H6   1.082       .  S
C4          C317   1.383       .  A
C4            H7   1.082       .  S
C5          C316   1.383   1_655  A
C5           C46   1.481       .  S
N8           C12   1.356       .  A
N8            C9   1.352       .  A
N8           C52   1.435       .  S
C9           C10   1.384       .  A
C9           C70   1.481       .  S
C10          C11   1.382       .  A
C10          H13   1.082       .  S
C11          C12   1.383       .  A
C11          H14   1.082       .  S
C12          C33   1.476       .  S
N15          C19   1.358       .  A
N15         C172   1.363       .  A
N15         C113   1.443       .  S
C16         N171   1.363       .  A
C16          C17   1.393       .  A
C16          C55   1.499       .  S
C17         C174   1.371       .  A
C17          H20   1.081       .  S
C18          C19   1.373       .  A
C18         C173   1.371       .  A
C18          H21   1.082       .  S
C19         C204   1.466       .  S
N22          C23   1.365       .  A
N22         C104   1.360   1_554  A
N22          C30   1.444       .  S
C23         C102   1.393       .  A
C23          C58   1.496       .  S
C24          C25   1.368       .  A
C24         C101   1.393       .  A
C24          H27   1.082       .  S
C25          C26   1.374       .  A
C25          H28   1.082       .  S
C26         N100   1.359       .  A
C26          C43   1.475       .  S
In29         O31   2.237       .  S
In29         O36   2.287       .  S
In29         O38   2.225       .  S
In29        O344   2.245       .  S
In29        O508   2.218   1_545  S
In29        O190   2.263   1_545  S
In29        O349   2.291   1_545  S
In29        O509   2.229   1_554  S
C30          O36   1.260       .  A
C30          O38   1.259       .  A
O31          C39   1.257       .  A
O32        In341   2.245   1_455  S
O32         C351   1.260   1_455  A
C33          O34   1.263       .  A
C33         O352   1.256       .  A
O34        In185   2.263       .  S
C35          N93   1.446   1_554  S
C35          O41   1.256   1_554  A
C35         O193   1.260       .  A
O37        In341   2.291   1_465  S
O37         C191   1.260       .  A
C39         N313   1.430       .  S
C39         O344   1.260       .  A
O40        In497   2.218       .  S
O40         C345   1.256       .  A
O41        In497   2.229   1_456  S
In42         O47   2.236       .  S
In42         O49   2.241       .  S
In42        O200   2.248   1_545  S
In42        O201   2.242   1_545  S
In42        O365   2.273       .  S
In42        O518   2.246   1_545  S
In42        O207   2.253       .  S
In42        O366   2.234       .  S
C43          O49   1.260       .  A
C43         O207   1.257       .  A
O44        In198   2.248       .  S
O44          C52   1.262       .  A
O45        In198   2.242       .  S
O45          C52   1.260       .  A
C46          O53   1.262   1_655  A
C46         O359   1.256       .  A
O47         C358   1.256       .  A
C48         C175   1.466       .  S
C48          O54   1.262   1_565  A
C48         O206   1.259       .  A
O50        In510   2.246   1_455  S
O50         C204   1.259       .  A
O51        In198   2.253       .  S
O51         C199   1.257       .  A
O53        In354   2.273   1_455  S
O54        In354   2.234   1_455  S
C55         C134   1.407   1_565  A
C55         C216   1.412       .  A
C56          C57   1.402       .  A
C56         C133   1.406   1_545  A
C56          H61   1.080       .  S
C57          C58   1.414       .  A
C57          O62   1.372       .  S
C58         C293   1.405   1_545  A
C59          C60   1.406       .  A
C59         C292   1.405       .  A
C59          H63   1.079       .  S
C60         C211   1.412       .  A
C60          O64   1.376       .  S
O62          H66   0.991       .  S
O64          H65   0.991       .  S
C67          C72   1.411       .  A
C67         C380   1.402       .  A
C68          C69   1.402       .  A
C68         C379   1.402   1_455  A
C68          H73   1.084       .  S
C69         C382   1.409   1_455  A
C69          O74   1.373       .  S
C70          C71   1.401       .  A
C70         C381   1.409       .  A
C71          C72   1.403       .  A
C71          H75   1.084       .  S
C72          O76   1.373       .  S
O74          H78   0.991       .  S
O76          H77   0.992       .  S
N79          C83   1.354   1_655  A
N79         C392   1.350       .  A
N79         C429   1.430       .  S
C80         N391   1.350       .  A
C80          C81   1.384       .  A
C80         C145   1.481       .  S
C81          C82   1.383       .  A
C81          H84   1.082       .  S
C82         C395   1.383       .  A
C82          H85   1.082       .  S
C83         C394   1.383       .  A
C83         C124   1.477   1_455  S
N86          C90   1.355       .  A
N86          C87   1.351       .  A
N86         C130   1.433       .  S
C87          C88   1.384       .  A
C87         C148   1.479       .  S
C88          C89   1.382       .  A
C88          H91   1.082       .  S
C89          C90   1.382       .  A
C89          H92   1.082       .  S
C90         C111   1.475       .  S
N93          C97   1.360       .  A
N93         C250   1.364       .  A
C94         N249   1.364       .  A
C94          C95   1.394       .  A
C94         C133   1.498   1_556  S
C95         C252   1.369       .  A
C95          H98   1.081       .  S
C96         C251   1.369       .  A
C96          C97   1.372       .  A
C96          H99   1.083       .  S
C97         C282   1.466       .  S
N100        C101   1.365       .  A
N100        C108   1.442       .  S
C101        C136   1.496       .  S
C102        C103   1.368   1_554  A
C102        H105   1.082       .  S
C103        C104   1.374       .  A
C103        H106   1.082       .  S
C104        C121   1.474       .  S
In107       O109   2.239       .  S
In107       O422   2.241       .  S
In107       O586   2.221   1_545  S
In107       O268   2.257   1_545  S
In107       O114   2.282       .  S
In107       O427   2.281   1_545  S
In107       O116   2.230       .  S
In107       O587   2.231       .  S
C108        O114   1.259       .  A
C108        O116   1.259       .  A
O109        C117   1.258       .  A
O110       In419   2.241   1_455  S
O110        C429   1.259   1_455  A
C111        O430   1.257       .  A
C111        O112   1.262       .  A
O112       In263   2.257       .  S
C113        O271   1.260       .  A
C113        O119   1.257       .  A
O115       In419   2.281   1_465  S
O115        C269   1.260       .  A
C117        N391   1.430       .  S
C117        O422   1.259       .  A
O118       In575   2.221       .  S
O118        C423   1.257       .  A
O119       In575   2.231   1_455  S
In120       O278   2.243   1_545  S
In120       O279   2.240   1_545  S
In120       O443   2.268       .  S
In120       O125   2.228       .  S
In120       O127   2.242       .  S
In120       O596   2.238   1_545  S
In120       O285   2.243       .  S
In120       O444   2.235       .  S
C121        O127   1.260       .  A
C121        O285   1.256       .  A
O122       In276   2.243       .  S
O122        C130   1.261       .  A
O123       In276   2.240       .  S
O123        C130   1.260       .  A
C124        O131   1.262   1_655  A
C124        O437   1.256       .  A
O125        C436   1.256       .  A
C126        C253   1.466       .  S
C126        O284   1.258       .  A
C126        O132   1.263   1_565  A
O128       In588   2.238   1_455  S
O128        C282   1.258       .  A
O129       In276   2.243       .  S
O129        C277   1.256       .  A
O131       In432   2.268   1_455  S
O132       In432   2.235   1_455  S
C133        C294   1.413       .  A
C134        C135   1.404       .  A
C134        H139   1.081       .  S
C135        C136   1.414       .  A
C135        O140   1.372       .  S
C136        C215   1.405   1_545  A
C137        C214   1.405       .  A
C137        C138   1.406       .  A
C137        H141   1.079       .  S
C138        C289   1.413       .  A
C138        O142   1.376   1_554  S
O140        H144   0.992       .  S
O142        H143   0.992       .  S
C145        C458   1.402       .  A
C145        C150   1.411       .  A
C146        C457   1.402   1_455  A
C146        C147   1.401       .  A
C146        H151   1.084       .  S
C147        C460   1.409   1_455  A
C147        O152   1.373       .  S
C148        C459   1.409       .  A
C148        C149   1.401       .  A
C149        C150   1.402       .  A
C149        H153   1.084       .  S
C150        O154   1.373       .  S
O152        H156   0.992       .  S
O154        H155   0.992       .  S
N157        C161   1.356       .  A
N157        C470   1.351       .  A
N157        C507   1.430       .  S
C158        N469   1.351       .  A
C158        C159   1.384       .  A
C158        C223   1.484       .  S
C159        C160   1.384       .  A
C159        H162   1.082       .  S
C160        C473   1.383       .  A
C160        H163   1.082       .  S
C161        C472   1.383   1_655  A
C161        C202   1.481       .  S
N164        C168   1.356       .  A
N164        C165   1.352       .  A
N164        C208   1.435       .  S
C165        C166   1.384       .  A
C165        C226   1.481       .  S
C166        C167   1.382       .  A
C166        H169   1.082       .  S
C167        C168   1.383       .  A
C167        H170   1.082       .  S
C168        C189   1.476       .  S
N171        C175   1.358       .  A
N171        C269   1.443       .  S
C172        C173   1.393       .  A
C172        C211   1.499       .  S
C173        H176   1.081       .  S
C174        C175   1.373       .  A
C174        H177   1.082       .  S
N178        C260   1.360   1_554  A
N178        C179   1.365       .  A
N178        C186   1.444       .  S
C179        C258   1.393       .  A
C179        C214   1.496       .  S
C180        C257   1.393       .  A
C180        C181   1.368       .  A
C180        H183   1.082       .  S
C181        C182   1.374       .  A
C181        H184   1.082       .  S
C182        N256   1.359       .  A
C182        C199   1.475       .  S
In185       O187   2.237       .  S
In185       O500   2.245       .  S
In185       O352   2.218       .  S
In185       O192   2.287       .  S
In185       O505   2.291       .  S
In185       O194   2.225       .  S
In185       O353   2.229   1_554  S
C186        O192   1.260       .  A
C186        O194   1.259       .  A
O187        C195   1.257       .  A
O188       In497   2.245   1_455  S
O188        C507   1.260   1_455  A
C189        O508   1.256       .  A
C189        O190   1.263       .  A
C191        N249   1.446   1_554  S
C191        O197   1.256   1_564  A
O193       In497   2.291   1_455  S
C195        N469   1.430       .  S
C195        O500   1.260       .  A
O196       In341   2.218   1_565  S
O196        C501   1.256       .  A
O197       In341   2.229   1_456  S
In198       O521   2.273       .  S
In198       O203   2.236       .  S
In198       O205   2.241       .  S
In198       O362   2.246       .  S
In198       O522   2.234       .  S
C199        O205   1.260       .  A
O200        C208   1.262       .  A
O201        C208   1.260       .  A
C202        O209   1.262   1_655  A
C202        O515   1.256       .  A
O203        C514   1.256       .  A
C204        O210   1.262       .  A
O206       In354   2.246   1_465  S
O209       In510   2.273   1_455  S
O210       In510   2.234   1_455  S
C211        C290   1.407       .  A
C212        C289   1.406       .  A
C212        C213   1.402       .  A
C212        H217   1.080       .  S
C213        C214   1.414       .  A
C213        O218   1.372       .  S
C215        C216   1.406       .  A
C215        H219   1.079       .  S
C216        O220   1.376       .  S
O218        H222   0.991       .  S
O220        H221   0.991       .  S
C223        C536   1.402       .  A
C223        C228   1.411       .  A
C224        C535   1.402   1_455  A
C224        C225   1.402       .  A
C224        H229   1.084       .  S
C225        C538   1.409   1_455  A
C225        O230   1.373       .  S
C226        C537   1.409       .  A
C226        C227   1.401       .  A
C227        C228   1.403       .  A
C227        H231   1.084       .  S
C228        O232   1.373       .  S
O230        H234   0.991       .  S
O232        H233   0.992       .  S
N235        C239   1.354   1_655  A
N235        C548   1.350       .  A
N235        C585   1.430       .  S
C236        N547   1.350       .  A
C236        C237   1.384       .  A
C236        C301   1.481       .  S
C237        C238   1.383       .  A
C237        H240   1.082       .  S
C238        C551   1.383       .  A
C238        H241   1.082       .  S
C239        C550   1.383       .  A
C239        C280   1.477   1_455  S
N242        C246   1.355       .  A
N242        C243   1.351       .  A
N242        C286   1.433       .  S
C243        C244   1.384       .  A
C243        C304   1.479       .  S
C244        C245   1.382       .  A
C244        H247   1.082       .  S
C245        C246   1.382       .  A
C245        H248   1.082       .  S
C246        C267   1.475       .  S
N249        C253   1.360       .  A
C250        C251   1.394       .  A
C250        C289   1.498   1_556  S
C251        H254   1.081       .  S
C252        C253   1.372       .  A
C252        H255   1.083       .  S
N256        C257   1.365       .  A
N256        C264   1.442       .  S
C257        C292   1.496       .  S
C258        C259   1.368   1_554  A
C258        H261   1.082       .  S
C259        C260   1.374       .  A
C259        H262   1.082       .  S
C260        C277   1.474       .  S
In263       O265   2.239       .  S
In263       O578   2.241       .  S
In263       O430   2.221       .  S
In263       O270   2.282       .  S
In263       O583   2.281       .  S
In263       O272   2.230       .  S
In263       O431   2.231       .  S
C264        O270   1.259       .  A
C264        O272   1.259       .  A
O265        C273   1.258       .  A
O266       In575   2.241   1_455  S
O266        C585   1.259   1_455  A
C267        O586   1.257       .  A
C267        O268   1.262       .  A
C269        O275   1.257   1_565  A
O271       In575   2.281   1_455  S
C273        N547   1.430       .  S
C273        O578   1.259       .  A
O274       In419   2.221   1_565  S
O274        C579   1.257       .  A
O275       In419   2.231   1_455  S
In276       O599   2.268       .  S
In276       O281   2.228       .  S
In276       O283   2.242       .  S
In276       O440   2.238       .  S
In276       O600   2.235       .  S
C277        O283   1.260       .  A
O278        C286   1.261       .  A
O279        C286   1.260       .  A
C280        O287   1.262   1_655  A
C280        O593   1.256       .  A
O281        C592   1.256       .  A
C282        O288   1.263       .  A
O284       In432   2.238   1_465  S
O287       In588   2.268   1_455  S
O288       In588   2.235   1_455  S
C290        C291   1.404       .  A
C290        H295   1.081       .  S
C291        C292   1.414       .  A
C291        O296   1.372       .  S
C293        C294   1.406       .  A
C293        H297   1.079       .  S
C294        O298   1.376   1_554  S
O296        H300   0.992       .  S
O298        H299   0.992       .  S
C301        C614   1.402       .  A
C301        C306   1.411       .  A
C302        C613   1.402   1_455  A
C302        C303   1.401       .  A
C302        H307   1.084       .  S
C303        C616   1.409   1_455  A
C303        O308   1.373       .  S
C304        C615   1.409       .  A
C304        C305   1.401       .  A
C305        C306   1.402       .  A
C305        H309   1.084       .  S
C306        O310   1.373       .  S
O308        H312   0.992       .  S
O310        H311   0.992       .  S
N313        C317   1.356       .  A
C314        C315   1.384   1_655  A
C314        C379   1.484       .  S
C315        C316   1.384       .  A
C315        H318   1.082       .  S
C316        H319   1.082       .  S
C317        C358   1.481       .  S
N320        C324   1.356       .  A
N320        C321   1.352       .  A
N320        C364   1.435       .  S
C321        C322   1.384       .  A
C321        C382   1.481       .  S
C322        C323   1.382       .  A
C322        H325   1.082       .  S
C323        C324   1.383       .  A
C323        H326   1.082       .  S
C324        C345   1.476       .  S
N327        C331   1.358       .  A
N327        C484   1.363       .  A
N327        C425   1.443       .  S
C328        N483   1.363       .  A
C328        C329   1.393       .  A
C328        C367   1.499       .  S
C329        C486   1.371       .  A
C329        H332   1.081       .  S
C330        C485   1.371       .  A
C330        C331   1.373       .  A
C330        H333   1.082       .  S
C331        C516   1.466       .  S
N334        C416   1.360   1_554  A
N334        C335   1.365       .  A
N334        C342   1.444       .  S
C335        C414   1.393       .  A
C335        C370   1.496       .  S
C336        C413   1.393       .  A
C336        C337   1.368       .  A
C336        H339   1.082       .  S
C337        C338   1.374       .  A
C337        H340   1.082       .  S
C338        N412   1.359       .  A
C338        C355   1.475       .  S
In341       O343   2.237       .  S
In341       O502   2.263   1_545  S
In341       O348   2.287       .  S
In341       O350   2.225       .  S
C342        O348   1.260       .  A
C342        O350   1.259       .  A
O343        C351   1.257       .  A
C345        O346   1.263       .  A
O346       In497   2.263       .  S
C347        N405   1.446   1_554  S
C347        O505   1.260       .  A
C347        O353   1.256   1_554  A
O349        C503   1.260       .  A
In354       O512   2.248   1_545  S
In354       O513   2.242   1_645  S
In354       O359   2.236       .  S
In354       O361   2.241       .  S
In354       O519   2.253       .  S
C355        O361   1.260       .  A
C355        O519   1.257       .  A
O356       In510   2.248       .  S
O356        C364   1.262       .  A
O357       In510   2.242   1_455  S
O357        C364   1.260   1_455  A
C358        O365   1.262       .  A
C360        C487   1.466       .  S
C360        O518   1.259       .  A
C360        O366   1.262   1_565  A
O362        C516   1.259       .  A
O363       In510   2.253       .  S
O363        C511   1.257       .  A
C367        C446   1.407   1_565  A
C367        C528   1.412       .  A
C368        C445   1.406   1_545  A
C368        C369   1.402       .  A
C368        H373   1.080       .  S
C369        C370   1.414       .  A
C369        O374   1.372       .  S
C370        C605   1.405   1_545  A
C371        C604   1.405       .  A
C371        C372   1.406       .  A
C371        H375   1.079       .  S
C372        C523   1.412       .  A
C372        O376   1.376       .  S
O374        H378   0.991       .  S
O376        H377   0.991       .  S
C379        C384   1.411       .  A
C380        C381   1.402       .  A
C380        H385   1.084       .  S
C381        O386   1.373       .  S
C382        C383   1.401       .  A
C383        C384   1.403       .  A
C383        H387   1.084       .  S
C384        O388   1.373       .  S
O386        H390   0.991       .  S
O388        H389   0.992       .  S
N391        C395   1.354       .  A
C392        C393   1.384   1_655  A
C392        C457   1.481       .  S
C393        C394   1.383       .  A
C393        H396   1.082       .  S
C394        H397   1.082       .  S
C395        C436   1.477       .  S
N398        C402   1.355       .  A
N398        C399   1.351       .  A
N398        C442   1.433       .  S
C399        C400   1.384       .  A
C399        C460   1.479       .  S
C400        C401   1.382       .  A
C400        H403   1.082       .  S
C401        C402   1.382       .  A
C401        H404   1.082       .  S
C402        C423   1.475       .  S
N405        C409   1.360       .  A
N405        C562   1.364       .  A
C406        N561   1.364       .  A
C406        C407   1.394       .  A
C406        C445   1.498   1_556  S
C407        C564   1.369       .  A
C407        H410   1.081       .  S
C408        C563   1.369       .  A
C408        C409   1.372       .  A
C408        H411   1.083       .  S
C409        C594   1.466       .  S
N412        C413   1.365       .  A
N412        C420   1.442       .  S
C413        C448   1.496       .  S
C414        C415   1.368   1_554  A
C414        H417   1.082       .  S
C415        C416   1.374       .  A
C415        H418   1.082       .  S
C416        C433   1.474       .  S
In419       O421   2.239       .  S
In419       O580   2.257   1_545  S
In419       O426   2.282       .  S
In419       O428   2.230       .  S
C420        O426   1.259       .  A
C420        O428   1.259       .  A
O421        C429   1.258       .  A
C423        O424   1.262       .  A
O424       In575   2.257       .  S
C425        O583   1.260       .  A
C425        O431   1.257       .  A
O427        C581   1.260       .  A
In432       O590   2.243   1_545  S
In432       O591   2.240   1_645  S
In432       O437   2.228       .  S
In432       O439   2.242       .  S
In432       O597   2.243       .  S
C433        O439   1.260       .  A
C433        O597   1.256       .  A
O434       In588   2.243       .  S
O434        C442   1.261       .  A
O435       In588   2.240   1_455  S
O435        C442   1.260   1_455  A
C436        O443   1.262       .  A
C438        C565   1.466       .  S
C438        O596   1.258       .  A
C438        O444   1.263   1_565  A
O440        C594   1.258       .  A
O441       In588   2.243       .  S
O441        C589   1.256       .  A
C445        C606   1.413       .  A
C446        C447   1.404       .  A
C446        H451   1.081       .  S
C447        C448   1.414       .  A
C447        O452   1.372       .  S
C448        C527   1.405   1_545  A
C449        C526   1.405       .  A
C449        C450   1.406       .  A
C449        H453   1.079       .  S
C450        C601   1.413       .  A
C450        O454   1.376   1_554  S
O452        H456   0.992       .  S
O454        H455   0.992       .  S
C457        C462   1.411       .  A
C458        C459   1.401       .  A
C458        H463   1.084       .  S
C459        O464   1.373       .  S
C460        C461   1.401       .  A
C461        C462   1.402       .  A
C461        H465   1.084       .  S
C462        O466   1.373       .  S
O464        H468   0.992       .  S
O466        H467   0.992       .  S
N469        C473   1.356       .  A
C470        C471   1.384   1_655  A
C470        C535   1.484       .  S
C471        C472   1.384       .  A
C471        H474   1.082       .  S
C472        H475   1.082       .  S
C473        C514   1.481       .  S
N476        C480   1.356       .  A
N476        C477   1.352       .  A
N476        C520   1.435       .  S
C477        C478   1.384       .  A
C477        C538   1.481       .  S
C478        C479   1.382       .  A
C478        H481   1.082       .  S
C479        C480   1.383       .  A
C479        H482   1.082       .  S
C480        C501   1.476       .  S
N483        C487   1.358       .  A
N483        C581   1.443       .  S
C484        C485   1.393       .  A
C484        C523   1.499       .  S
C485        H488   1.081       .  S
C486        C487   1.373       .  A
C486        H489   1.082       .  S
N490        C572   1.360   1_554  A
N490        C491   1.365       .  A
N490        C498   1.444       .  S
C491        C570   1.393       .  A
C491        C526   1.496       .  S
C492        C569   1.393       .  A
C492        C493   1.368       .  A
C492        H495   1.082       .  S
C493        C494   1.374       .  A
C493        H496   1.082       .  S
C494        N568   1.359       .  A
C494        C511   1.475       .  S
In497       O499   2.237       .  S
In497       O504   2.287       .  S
In497       O506   2.225       .  S
C498        O504   1.260       .  A
C498        O506   1.259       .  A
O499        C507   1.257       .  A
C501        O502   1.263       .  A
C503        N561   1.446   1_554  S
C503        O509   1.256   1_564  A
In510       O515   2.236       .  S
In510       O517   2.241       .  S
C511        O517   1.260       .  A
O512        C520   1.262       .  A
O513        C520   1.260   1_455  A
C514        O521   1.262       .  A
C516        O522   1.262       .  A
C523        C602   1.407       .  A
C524        C601   1.406       .  A
C524        C525   1.402       .  A
C524        H529   1.080       .  S
C525        C526   1.414       .  A
C525        O530   1.372       .  S
C527        C528   1.406       .  A
C527        H531   1.079       .  S
C528        O532   1.376       .  S
O530        H534   0.991       .  S
O532        H533   0.991       .  S
C535        C540   1.411       .  A
C536        C537   1.402       .  A
C536        H541   1.084       .  S
C537        O542   1.373       .  S
C538        C539   1.401       .  A
C539        C540   1.403       .  A
C539        H543   1.084       .  S
C540        O544   1.373       .  S
O542        H546   0.991       .  S
O544        H545   0.992       .  S
N547        C551   1.354       .  A
C548        C549   1.384   1_655  A
C548        C613   1.481       .  S
C549        C550   1.383       .  A
C549        H552   1.082       .  S
C550        H553   1.082       .  S
C551        C592   1.477       .  S
N554        C558   1.355       .  A
N554        C555   1.351       .  A
N554        C598   1.433       .  S
C555        C556   1.384       .  A
C555        C616   1.479       .  S
C556        C557   1.382       .  A
C556        H559   1.082       .  S
C557        C558   1.382       .  A
C557        H560   1.082       .  S
C558        C579   1.475       .  S
N561        C565   1.360       .  A
C562        C563   1.394       .  A
C562        C601   1.498   1_556  S
C563        H566   1.081       .  S
C564        C565   1.372       .  A
C564        H567   1.083       .  S
N568        C569   1.365       .  A
N568        C576   1.442       .  S
C569        C604   1.496       .  S
C570        C571   1.368   1_554  A
C570        H573   1.082       .  S
C571        C572   1.374       .  A
C571        H574   1.082       .  S
C572        C589   1.474       .  S
In575       O577   2.239       .  S
In575       O582   2.282       .  S
In575       O584   2.230       .  S
C576        O582   1.259       .  A
C576        O584   1.259       .  A
O577        C585   1.258       .  A
C579        O580   1.262       .  A
C581        O587   1.257   1_565  A
In588       O593   2.228       .  S
In588       O595   2.242       .  S
C589        O595   1.260       .  A
O590        C598   1.261       .  A
O591        C598   1.260   1_455  A
C592        O599   1.262       .  A
C594        O600   1.263       .  A
C602        C603   1.404       .  A
C602        H607   1.081       .  S
C603        C604   1.414       .  A
C603        O608   1.372       .  S
C605        C606   1.406       .  A
C605        H609   1.079       .  S
C606        O610   1.376   1_554  S
O608        H612   0.992       .  S
O610        H611   0.992       .  S
C613        C618   1.411       .  A
C614        C615   1.401       .  A
C614        H619   1.084       .  S
C615        O620   1.373       .  S
C616        C617   1.401       .  A
C617        C618   1.402       .  A
C617        H621   1.084       .  S
C618        O622   1.373       .  S
O620        H624   0.992       .  S
O622        H623   0.992       .  S
