geometry optimzed in LAMMPS
_audit_creation_date              2020-11-30 
_audit_creation_method            'lammps2cif' 
_symmetry_space_group_name_H-M    'P1' 
_symmetry_Int_Tables_number       1 
_symmetry_cell_setting            triclinic 
loop_ 
_symmetry_equiv_pos_as_xyz 
  x,y,z 
_cell_length_a                    24.36106452 
_cell_length_b                    36.08881674085901 
_cell_length_c                    28.210295795603432 
_cell_angle_alpha                 92.0561033404085 
_cell_angle_beta                  89.37173186224936 
_cell_angle_gamma                 90.19698241758863 
loop_ 
_atom_site_label 
_atom_site_type_symbol 
_atom_site_fract_x 
_atom_site_fract_y 
_atom_site_fract_z 
_atom_site_charge 
C1          C  0.20224046  0.25002143  0.99717763     0.81200
N2          N  0.17382905  0.24325751  0.03790453    -0.77100
C3          C  0.11811288  0.24360990  0.03776033     0.83700
N4          N  0.09169832  0.24991500  0.99707419    -0.77000
C5          C  0.11927118  0.25625416  0.95642216     0.83800
N6          N  0.17500492  0.25672252  0.95638283    -0.78700
C7          C  0.36951283  0.25015349  0.99750521     0.81200
N8          N  0.39674729  0.24343738  0.03829573    -0.77100
C9          C  0.45248151  0.24386448  0.03824414     0.83700
N10         N  0.48005509  0.25017978  0.99758566    -0.77000
C11         C  0.45364102  0.25650216  0.95690476     0.83800
N12         N  0.39792541  0.25689552  0.95677215    -0.78700
C13         C  0.03398030  0.20188193  0.13761090     0.87500
C14         C  0.48396491  0.20628406  0.10531215    -0.52700
C15         C  0.48486016  0.23842937  0.08120821     0.10400
C16         C  0.03496245  0.26313636  0.09236067     0.21400
C17         C  0.08442402  0.20596298  0.10472566    -0.53500
C18         C  0.08458200  0.23812166  0.08068109     0.10500
C19         C  0.03425933  0.23657802  0.17047679    -0.53000
C20         C  0.03480905  0.26869817  0.14657277     0.11100
H21         H  0.45370814  0.18457056  0.09881623     0.15600
H22         H  0.03540155  0.28947732  0.07307379     0.01400
H23         H  0.11435962  0.18411191  0.09799371     0.15900
H24         H  0.03424036  0.23584459  0.20895521     0.15700
C25         C  0.03776771  0.29822905  0.85705202     0.87500
C26         C  0.48732576  0.29414574  0.88993815    -0.52700
C27         C  0.48717126  0.26198803  0.91398346     0.10400
C28         C  0.03679268  0.23697501  0.90230336     0.21400
C29         C  0.08778450  0.29382938  0.88934933    -0.53500
C30         C  0.08689333  0.26168504  0.91345529     0.10500
C31         C  0.03748969  0.26353278  0.82418635    -0.53000
C32         C  0.03694211  0.23141275  0.84809072     0.11100
H33         H  0.45738757  0.31599582  0.89667039     0.15600
H34         H  0.03635582  0.21063500  0.92158988     0.01400
H35         H  0.11804168  0.31554768  0.89584567     0.15900
H36         H  0.03749820  0.26426620  0.78570933     0.15700
N37         N  0.03697388  0.06544660  0.26721543    -0.26300
N38         N  0.03665480  0.04567773  0.22677869    -0.34100
C39         C  0.03542946  0.06888977  0.19050111     0.02100
C40         C  0.03492379  0.10474085  0.20924172     0.08100
C41         C  0.03594252  0.10169271  0.25777573    -0.05000
H42         H  0.03495072  0.06026749  0.15337805     0.08800
H43         H  0.03594202  0.12410117  0.28433913     0.10000
Cu44       Cu  0.03781269  0.48812044  0.22270168     0.44200
Cu45       Cu  0.03862583  0.04282669  0.33367344     0.42000
Cu46       Cu  0.04162594  0.44328625  0.33591973     0.43900
N47         N  0.03858804  0.43102813  0.22944031    -0.33700
N48         N  0.04015909  0.41473549  0.27069454    -0.27900
C49         C  0.03996961  0.37772710  0.26289718    -0.04000
C50         C  0.03818466  0.37058278  0.21456786     0.08200
C51         C  0.03732832  0.40480684  0.19430318     0.02000
H52         H  0.04081473  0.35760090  0.29039667     0.09600
H53         H  0.03575731  0.41030154  0.15690134     0.08700
N54         N  0.03957075  0.47741026  0.39677128    -0.35100
N55         N  0.03847833  0.01399516  0.39589659    -0.27300
C56         C  0.03669291  0.02807688  0.44069100    -0.02500
C57         C  0.03660407  0.49892594  0.47122699     0.06100
C58         C  0.03847552  0.46720657  0.44218531     0.04200
H59         H  0.03528307  0.05737097  0.45023341     0.09300
H60         H  0.03875826  0.43879001  0.45316752     0.08100
N61         N  0.03443519  0.43465780  0.72745155    -0.26300
N62         N  0.03493247  0.45442923  0.76788397    -0.34100
C63         C  0.03628262  0.43121903  0.80415848     0.02100
C64         C  0.03668452  0.39536679  0.78542097     0.08100
C65         C  0.03547342  0.39841226  0.73689206    -0.05000
H66         H  0.03691796  0.43984367  0.84127795     0.08800
H67         H  0.03535444  0.37600064  0.71033030     0.10000
Cu68       Cu  0.03384338  0.01198722  0.77196680     0.44200
Cu69       Cu  0.03256192  0.45727133  0.66099673     0.42000
Cu70       Cu  0.02963682  0.05681262  0.65876871     0.43900
N71         N  0.03303078  0.06907976  0.76523427    -0.34400
N72         N  0.03130978  0.08536996  0.72398501    -0.27900
C73         C  0.03150398  0.12237931  0.73177910    -0.04000
C74         C  0.03344987  0.12952592  0.78010264     0.08200
C75         C  0.03439503  0.09530278  0.80036636     0.02000
H76         H  0.03055131  0.14250151  0.70428511     0.09600
H77         H  0.03609221  0.08981029  0.83776154     0.08700
N78         N  0.03155656  0.02269326  0.59790936    -0.35100
N79         N  0.03261708  0.48610738  0.59877897    -0.27300
C80         C  0.03434034  0.47202789  0.55398260    -0.02500
C81         C  0.03442280  0.00118080  0.52344987     0.06100
C82         C  0.03261131  0.03289913  0.55249595     0.04200
H83         H  0.03572965  0.44273369  0.54443653     0.09300
H84         H  0.03235800  0.06131928  0.54151583     0.08100
C85         C  0.03482382  0.16527913  0.80428103    -0.12300
C86         C  0.03592838  0.19536119  0.82433012    -0.13800
C87         C  0.03812189  0.33307873  0.83180933    -0.12300
C88         C  0.03773644  0.36166725  0.81097781    -0.13800
C89         C  0.03686088  0.33483125  0.19038430    -0.12300
C90         C  0.03579286  0.30474961  0.17033323    -0.13800
C91         C  0.03361125  0.16703172  0.16285348    -0.12300
C92         C  0.03395099  0.13844232  0.18368476    -0.13800
C93         C  0.26113770  0.25008318  0.99727232    -0.12300
C94         C  0.31061569  0.25011838  0.99741773    -0.13800
C95         C  0.20224042  0.75002136  0.99717763     0.81200
N96         N  0.17382901  0.74325762  0.03790459    -0.77100
C97         C  0.11811284  0.74360976  0.03776033     0.83700
N98         N  0.09169830  0.74991503  0.99707425    -0.77000
C99         C  0.11927123  0.75625419  0.95642221     0.83800
N100        N  0.17500496  0.75672257  0.95638289    -0.78700
C101        C  0.36951285  0.75015344  0.99750518     0.81200
N102        N  0.39674723  0.74343733  0.03829569    -0.77100
C103        C  0.45248156  0.74386441  0.03824413     0.83700
N104        N  0.48005520  0.75017971  0.99758570    -0.77000
C105        C  0.45364120  0.75650212  0.95690478     0.83800
N106        N  0.39792552  0.75689547  0.95677216    -0.78700
C107        C  0.03398015  0.70188189  0.13761093     0.87500
C108        C  0.48396506  0.70628418  0.10531220    -0.52700
C109        C  0.48486004  0.73842924  0.08120825     0.10400
C110        C  0.03496236  0.76313632  0.09236067     0.21400
C111        C  0.08442408  0.70596289  0.10472563    -0.53500
C112        C  0.08458202  0.73812167  0.08068116     0.10500
C113        C  0.03425924  0.73657805  0.17047684    -0.53000
C114        C  0.03480879  0.76869813  0.14657278     0.11100
H115        H  0.45370611  0.68456930  0.09881590     0.15600
H116        H  0.03540119  0.78947719  0.07307385     0.01400
H117        H  0.11435950  0.68411237  0.09799419     0.15900
H118        H  0.03424011  0.73584471  0.20895521     0.15700
C119        C  0.03776759  0.79822886  0.85705195     0.87500
C120        C  0.48732586  0.79414569  0.88993814    -0.52700
C121        C  0.48717129  0.76198800  0.91398344     0.10400
C122        C  0.03679264  0.73697501  0.90230337     0.21400
C123        C  0.08778481  0.79382952  0.88934933    -0.53500
C124        C  0.08689334  0.76168481  0.91345529     0.10500
C125        C  0.03748971  0.76353273  0.82418629    -0.53000
C126        C  0.03694222  0.73141267  0.84809071     0.11100
H127        H  0.45738731  0.81599596  0.89667035     0.15600
H128        H  0.03635542  0.71063478  0.92159008     0.01400
H129        H  0.11803898  0.81554598  0.89584513     0.15900
H130        H  0.03749823  0.76426616  0.78570930     0.15700
N131        N  0.03697391  0.56544660  0.26721544    -0.26300
N132        N  0.03665473  0.54567773  0.22677869    -0.34100
C133        C  0.03542948  0.56888978  0.19050112     0.02100
C134        C  0.03492362  0.60474086  0.20924176     0.08100
C135        C  0.03594232  0.60169269  0.25777577    -0.05000
H136        H  0.03495075  0.56026754  0.15337813     0.08800
H137        H  0.03594159  0.62410118  0.28433932     0.10000
Cu138      Cu  0.03781253  0.98812039  0.22270169     0.44200
Cu139      Cu  0.03862570  0.54282684  0.33367349     0.42000
Cu140      Cu  0.04162617  0.94328624  0.33591975     0.43900
N141        N  0.03858805  0.93102808  0.22944033    -0.33700
N142        N  0.04015919  0.91473549  0.27069458    -0.27900
C143        C  0.03997000  0.87772712  0.26289719    -0.04000
C144        C  0.03818477  0.87058277  0.21456784     0.08200
C145        C  0.03732825  0.90480682  0.19430317     0.02000
H146        H  0.04081596  0.85760094  0.29039672     0.09600
H147        H  0.03575685  0.91030156  0.15690135     0.08700
N148        N  0.03957062  0.97741021  0.39677130    -0.35100
N149        N  0.03847833  0.51399523  0.39589658    -0.27300
C150        C  0.03669298  0.52807693  0.44069101    -0.02500
C151        C  0.03660404  0.99892596  0.47122702     0.06100
C152        C  0.03847536  0.96720655  0.44218537     0.04200
H153        H  0.03528270  0.55737099  0.45023341     0.09300
H154        H  0.03875780  0.93879017  0.45316756     0.08100
N155        N  0.03443529  0.93465779  0.72745155    -0.26300
N156        N  0.03493275  0.95442922  0.76788396    -0.34100
C157        C  0.03628294  0.93121902  0.80415846     0.02100
C158        C  0.03668464  0.89536678  0.78542095     0.08100
C159        C  0.03547353  0.89841224  0.73689206    -0.05000
H160        H  0.03691835  0.93984364  0.84127793     0.08800
H161        H  0.03535418  0.87600061  0.71033031     0.10000
Cu162      Cu  0.03384322  0.51198720  0.77196680     0.44200
Cu163      Cu  0.03256218  0.95727129  0.66099673     0.42000
Cu164      Cu  0.02963671  0.55681256  0.65876871     0.43900
N165        N  0.03303068  0.56907972  0.76523425    -0.34400
N166        N  0.03130981  0.58536991  0.72398500    -0.27900
C167        C  0.03150379  0.62237926  0.73177910    -0.04000
C168        C  0.03344975  0.62952588  0.78010264     0.08200
C169        C  0.03439502  0.59530273  0.80036638     0.02000
H170        H  0.03055088  0.64250145  0.70428513     0.09600
H171        H  0.03609163  0.58981028  0.83776135     0.08700
N172        N  0.03155647  0.52269303  0.59790949    -0.35100
N173        N  0.03261733  0.98610739  0.59877896    -0.27300
C174        C  0.03434061  0.97202813  0.55398274    -0.02500
C175        C  0.03442283  0.50118059  0.52344988     0.06100
C176        C  0.03261137  0.53289940  0.55249578     0.04200
H177        H  0.03573059  0.94273312  0.54443642     0.09300
H178        H  0.03235907  0.56131660  0.54151678     0.08100
C179        C  0.03482385  0.66527910  0.80428105    -0.12300
C180        C  0.03592829  0.69536117  0.82433012    -0.13800
C181        C  0.03812203  0.83307869  0.83180933    -0.12300
C182        C  0.03773649  0.86166722  0.81097781    -0.13800
C183        C  0.03686093  0.83483124  0.19038425    -0.12300
C184        C  0.03579300  0.80474956  0.17033325    -0.13800
C185        C  0.03361105  0.66703177  0.16285362    -0.12300
C186        C  0.03395097  0.63844228  0.18368471    -0.13800
C187        C  0.26113762  0.75008321  0.99727230    -0.12300
C188        C  0.31061558  0.75011833  0.99741771    -0.13800
C189        C  0.70224042  0.25002143  0.99717763     0.81200
N190        N  0.67382903  0.24325750  0.03790453    -0.77100
C191        C  0.61811286  0.24360986  0.03776032     0.83700
N192        N  0.59169832  0.24991499  0.99707422    -0.77000
C193        C  0.61927121  0.25625417  0.95642217     0.83800
N194        N  0.67500497  0.25672251  0.95638285    -0.78700
C195        C  0.86951283  0.25015350  0.99750519     0.81200
N196        N  0.89674732  0.24343738  0.03829570    -0.77100
C197        C  0.95248155  0.24386449  0.03824413     0.83700
N198        N  0.98005517  0.25017978  0.99758568    -0.77000
C199        C  0.95364112  0.25650215  0.95690477     0.83800
N200        N  0.89792548  0.25689553  0.95677213    -0.78700
C201        C  0.53398031  0.20188196  0.13761097     0.87500
C202        C  0.98396491  0.20628407  0.10531210    -0.52700
C203        C  0.98486017  0.23842941  0.08120819     0.10400
C204        C  0.53496241  0.26313636  0.09236067     0.21400
C205        C  0.58442415  0.20596292  0.10472565    -0.53500
C206        C  0.58458206  0.23812167  0.08068112     0.10500
C207        C  0.53425933  0.23657806  0.17047685    -0.53000
C208        C  0.53480886  0.26869817  0.14657281     0.11100
H209        H  0.95370812  0.18457058  0.09881624     0.15600
H210        H  0.53540123  0.28947717  0.07307387     0.01400
H211        H  0.61435967  0.18411229  0.09799419     0.15900
H212        H  0.53424017  0.23584466  0.20895530     0.15700
C213        C  0.53776753  0.29822898  0.85705199     0.87500
C214        C  0.98732592  0.29414571  0.88993813    -0.52700
C215        C  0.98717142  0.26198804  0.91398347     0.10400
C216        C  0.53679263  0.23697500  0.90230339     0.21400
C217        C  0.58778464  0.29382949  0.88934930    -0.53500
C218        C  0.58689324  0.26168494  0.91345530     0.10500
C219        C  0.53748963  0.26353277  0.82418634    -0.53000
C220        C  0.53694214  0.23141272  0.84809071     0.11100
H221        H  0.95738758  0.31599583  0.89667032     0.15600
H222        H  0.53635583  0.21063497  0.92158989     0.01400
H223        H  0.61803972  0.31554659  0.89584531     0.15900
H224        H  0.53749824  0.26426619  0.78570931     0.15700
N225        N  0.53697397  0.06544657  0.26721545    -0.26300
N226        N  0.53665473  0.04567772  0.22677869    -0.34100
C227        C  0.53542952  0.06888981  0.19050114     0.02100
C228        C  0.53492370  0.10474088  0.20924180     0.08100
C229        C  0.53594239  0.10169268  0.25777582    -0.05000
H230        H  0.53495068  0.06026759  0.15337814     0.08800
H231        H  0.53594166  0.12410114  0.28433937     0.10000
Cu232      Cu  0.53781258  0.48812044  0.22270168     0.44200
Cu233      Cu  0.53862576  0.04282668  0.33367344     0.42000
Cu234      Cu  0.54162585  0.44328625  0.33591973     0.43900
N235        N  0.53858811  0.43102813  0.22944031    -0.33700
N236        N  0.54015900  0.41473550  0.27069454    -0.27900
C237        C  0.53996972  0.37772709  0.26289718    -0.04000
C238        C  0.53818470  0.37058278  0.21456786     0.08200
C239        C  0.53732824  0.40480684  0.19430319     0.02000
H240        H  0.54081478  0.35760091  0.29039666     0.09600
H241        H  0.53575704  0.41030153  0.15690137     0.08700
N242        N  0.53957068  0.47741026  0.39677128    -0.35100
N243        N  0.53847826  0.01399516  0.39589659    -0.27300
C244        C  0.53669297  0.02807688  0.44069100    -0.02500
C245        C  0.53660397  0.49892595  0.47122699     0.06100
C246        C  0.53847541  0.46720657  0.44218531     0.04200
H247        H  0.53528300  0.05737099  0.45023341     0.09300
H248        H  0.53875768  0.43879004  0.45316750     0.08100
N249        N  0.53443517  0.43465780  0.72745155    -0.26300
N250        N  0.53493270  0.45442923  0.76788398    -0.34100
C251        C  0.53628283  0.43121903  0.80415846     0.02100
C252        C  0.53668469  0.39536679  0.78542097     0.08100
C253        C  0.53547364  0.39841226  0.73689207    -0.05000
H254        H  0.53691874  0.43984370  0.84127803     0.08800
H255        H  0.53535456  0.37600063  0.71033030     0.10000
Cu256      Cu  0.53384330  0.01198722  0.77196680     0.44200
Cu257      Cu  0.53256219  0.45727133  0.66099673     0.42000
Cu258      Cu  0.52963673  0.05681262  0.65876871     0.43900
N259        N  0.53303073  0.06907977  0.76523426    -0.34400
N260        N  0.53130987  0.08536996  0.72398500    -0.27900
C261        C  0.53150384  0.12237931  0.73177910    -0.04000
C262        C  0.53344981  0.12952592  0.78010263     0.08200
C263        C  0.53439507  0.09530278  0.80036638     0.02000
H264        H  0.53055093  0.14250150  0.70428513     0.09600
H265        H  0.53609169  0.08981033  0.83776135     0.08700
N266        N  0.53155647  0.02269326  0.59790936    -0.35100
N267        N  0.53261709  0.48610738  0.59877897    -0.27300
C268        C  0.53434043  0.47202789  0.55398260    -0.02500
C269        C  0.53442268  0.00118080  0.52344987     0.06100
C270        C  0.53261122  0.03289913  0.55249595     0.04200
H271        H  0.53572975  0.44273371  0.54443653     0.09300
H272        H  0.53235791  0.06131928  0.54151583     0.08100
C273        C  0.53482391  0.16527912  0.80428103    -0.12300
C274        C  0.53592835  0.19536119  0.82433011    -0.13800
C275        C  0.53812201  0.33307872  0.83180933    -0.12300
C276        C  0.53773655  0.36166725  0.81097781    -0.13800
C277        C  0.53686083  0.33483126  0.19038430    -0.12300
C278        C  0.53579308  0.30474962  0.17033322    -0.13800
C279        C  0.53361111  0.16703180  0.16285362    -0.12300
C280        C  0.53395103  0.13844233  0.18368473    -0.13800
C281        C  0.76113760  0.25008319  0.99727228    -0.12300
C282        C  0.81061558  0.25011838  0.99741769    -0.13800
C283        C  0.70224049  0.75002136  0.99717765     0.81200
N284        N  0.67382906  0.74325763  0.03790457    -0.77100
C285        C  0.61811285  0.74360980  0.03776028     0.83700
N286        N  0.59169820  0.74991505  0.99707422    -0.77000
C287        C  0.61927117  0.75625420  0.95642220     0.83800
N288        N  0.67500495  0.75672257  0.95638292    -0.78700
C289        C  0.86951288  0.75015344  0.99750518     0.81200
N290        N  0.89674726  0.74343734  0.03829569    -0.77100
C291        C  0.95248156  0.74386444  0.03824410     0.83700
N292        N  0.98005520  0.75017974  0.99758567    -0.77000
C293        C  0.95364117  0.75650215  0.95690476     0.83800
N294        N  0.89792553  0.75689547  0.95677216    -0.78700
C295        C  0.53398012  0.70188189  0.13761093     0.87500
C296        C  0.98396513  0.70628421  0.10531213    -0.52700
C297        C  0.98486001  0.73842926  0.08120821     0.10400
C298        C  0.53496241  0.76313631  0.09236068     0.21400
C299        C  0.58442412  0.70596287  0.10472556    -0.53500
C300        C  0.58458202  0.73812167  0.08068108     0.10500
C301        C  0.53425927  0.73657806  0.17047683    -0.53000
C302        C  0.53480896  0.76869813  0.14657278     0.11100
H303        H  0.95370595  0.68456929  0.09881590     0.15600
H304        H  0.53540108  0.78947723  0.07307384     0.01400
H305        H  0.61435939  0.68411256  0.09799415     0.15900
H306        H  0.53424111  0.73584472  0.20895527     0.15700
C307        C  0.53776753  0.79822893  0.85705199     0.87500
C308        C  0.98732556  0.79414588  0.88993815    -0.52700
C309        C  0.98717137  0.76198794  0.91398345     0.10400
C310        C  0.53679264  0.73697503  0.90230336     0.21400
C311        C  0.58778483  0.79382958  0.88934935    -0.53500
C312        C  0.58689323  0.76168486  0.91345529     0.10500
C313        C  0.53748976  0.76353275  0.82418633    -0.53000
C314        C  0.53694209  0.73141270  0.84809073     0.11100
H315        H  0.95738944  0.81599477  0.89667014     0.15600
H316        H  0.53635571  0.71063480  0.92159010     0.01400
H317        H  0.61803880  0.81554589  0.89584515     0.15900
H318        H  0.53749764  0.76426618  0.78570929     0.15700
N319        N  0.53697401  0.56544660  0.26721543    -0.26300
N320        N  0.53665463  0.54567773  0.22677870    -0.34100
C321        C  0.53542946  0.56888979  0.19050112     0.02100
C322        C  0.53492370  0.60474086  0.20924176     0.08100
C323        C  0.53594252  0.60169269  0.25777577    -0.05000
H324        H  0.53495054  0.56026754  0.15337813     0.08800
H325        H  0.53594209  0.62410119  0.28433930     0.10000
Cu326      Cu  0.53781245  0.98812039  0.22270168     0.44200
Cu327      Cu  0.53862561  0.54282684  0.33367349     0.42000
Cu328      Cu  0.54162608  0.94328624  0.33591975     0.43900
N329        N  0.53858798  0.93102808  0.22944032    -0.33700
N330        N  0.54015908  0.91473549  0.27069458    -0.27900
C331        C  0.53996989  0.87772713  0.26289719    -0.04000
C332        C  0.53818469  0.87058278  0.21456783     0.08200
C333        C  0.53732813  0.90480682  0.19430319     0.02000
H334        H  0.54081588  0.85760094  0.29039672     0.09600
H335        H  0.53575630  0.91030158  0.15690121     0.08700
N336        N  0.53957071  0.97741021  0.39677131    -0.35100
N337        N  0.53847823  0.51399523  0.39589658    -0.27300
C338        C  0.53669287  0.52807693  0.44069101    -0.02500
C339        C  0.53660398  0.99892596  0.47122702     0.06100
C340        C  0.53847524  0.96720655  0.44218537     0.04200
H341        H  0.53528259  0.55737099  0.45023341     0.09300
H342        H  0.53875741  0.93879016  0.45316755     0.08100
N343        N  0.53443519  0.93465779  0.72745155    -0.26300
N344        N  0.53493265  0.95442922  0.76788396    -0.34100
C345        C  0.53628284  0.93121902  0.80415846     0.02100
C346        C  0.53668454  0.89536678  0.78542095     0.08100
C347        C  0.53547343  0.89841224  0.73689206    -0.05000
H348        H  0.53691829  0.93984364  0.84127793     0.08800
H349        H  0.53535411  0.87600061  0.71033031     0.10000
Cu350      Cu  0.53384314  0.51198720  0.77196680     0.44200
Cu351      Cu  0.53256209  0.95727129  0.66099673     0.42000
Cu352      Cu  0.52963660  0.55681256  0.65876871     0.43900
N353        N  0.53303060  0.56907972  0.76523426    -0.34400
N354        N  0.53130976  0.58536991  0.72398499    -0.27900
C355        C  0.53150382  0.62237925  0.73177911    -0.04000
C356        C  0.53344969  0.62952589  0.78010263     0.08200
C357        C  0.53439505  0.59530273  0.80036638     0.02000
H358        H  0.53055038  0.64250152  0.70428504     0.09600
H359        H  0.53609159  0.58981028  0.83776132     0.08700
N360        N  0.53155657  0.52269303  0.59790949    -0.35100
N361        N  0.53261724  0.98610739  0.59877896    -0.27300
C362        C  0.53434051  0.97202813  0.55398274    -0.02500
C363        C  0.53442273  0.50118059  0.52344988     0.06100
C364        C  0.53261123  0.53289940  0.55249578     0.04200
H365        H  0.53573049  0.94273312  0.54443642     0.09300
H366        H  0.53235865  0.56131659  0.54151678     0.08100
C367        C  0.53482388  0.66527910  0.80428105    -0.12300
C368        C  0.53592830  0.69536118  0.82433014    -0.13800
C369        C  0.53812188  0.83307870  0.83180933    -0.12300
C370        C  0.53773657  0.86166722  0.81097781    -0.13800
C371        C  0.53686104  0.83483124  0.19038424    -0.12300
C372        C  0.53579300  0.80474957  0.17033324    -0.13800
C373        C  0.53361111  0.66703177  0.16285363    -0.12300
C374        C  0.53395108  0.63844229  0.18368471    -0.13800
C375        C  0.76113771  0.75008320  0.99727237    -0.12300
C376        C  0.81061567  0.75011832  0.99741775    -0.13800
loop_ 
_geom_bond_atom_site_label_1 
_geom_bond_atom_site_label_2 
_geom_bond_distance 
_geom_bond_site_symmetry_2 
_ccdc_geom_bond_type 
C1            N2   1.364   1_556  A
C1            N6   1.364       .  A
C1           C93   1.435       .  S
N2            C3   1.357       .  A
C3            N4   1.349   1_554  A
C3           C18   1.472       .  S
N4            C5   1.349       .  A
C5            N6   1.358       .  A
C5           C30   1.473       .  S
C7            N8   1.364   1_556  A
C7           N12   1.364       .  A
C7           C94   1.435       .  S
N8            C9   1.358       .  A
C9           N10   1.349   1_554  A
C9           C15   1.473       .  S
N10          C11   1.349       .  A
C11          N12   1.357       .  A
C11          C27   1.472       .  S
C13          C19   1.531       .  S
C13          C17   1.541       .  S
C13         C202   1.541   1_455  S
C13          C91   1.467       .  S
C14         C201   1.541       .  S
C14          H21   1.086       .  S
C14          C15   1.366       .  D
C15         C204   1.538       .  S
C16          C20   1.535       .  S
C16          C18   1.537       .  S
C16         C203   1.538   1_455  S
C16          H22   1.112       .  S
C17          H23   1.086       .  S
C17          C18   1.365       .  D
C19          H24   1.087       .  S
C19          C20   1.362       .  D
C20          C90   1.442       .  S
C25          C31   1.531       .  S
C25          C29   1.541       .  S
C25         C214   1.541   1_455  S
C25          C87   1.467       .  S
C26         C213   1.541       .  S
C26          H33   1.086       .  S
C26          C27   1.365       .  D
C27         C216   1.537       .  S
C28          C32   1.535       .  S
C28          C30   1.538       .  S
C28         C215   1.537   1_455  S
C28          H34   1.112       .  S
C29          H35   1.086       .  S
C29          C30   1.366       .  D
C31          H36   1.087       .  S
C31          C32   1.362       .  D
C32          C86   1.442       .  S
N37          C41   1.345       .  A
N37          N38   1.324       .  A
N37         Cu45   2.072       .  S
N38          C39   1.346       .  A
N38        Cu138   2.077   1_545  S
C39          C40   1.380       .  A
C39          H42   1.082       .  S
C40          C92   1.436       .  S
C40          C41   1.378       .  A
C41          H43   1.083       .  S
Cu44         N47   2.076       .  S
Cu44        N132   2.077       .  S
Cu45         N55   2.072       .  S
Cu46         N48   2.077       .  S
Cu46         N54   2.077       .  S
N47          C51   1.346       .  A
N47          N48   1.324       .  A
N48          C49   1.346       .  A
C49          C50   1.380       .  A
C49          H52   1.082       .  S
C50          C89   1.438       .  S
C50          C51   1.380       .  A
C51          H53   1.082       .  S
N54          C58   1.346       .  A
N54         N149   1.322       .  A
N55          C56   1.345       .  A
N55         N148   1.322   1_545  A
C56         C151   1.383   1_545  A
C56          H59   1.082       .  S
C57          C58   1.384       .  A
C57         C150   1.383       .  A
C57         C175   1.473       .  S
C58          H60   1.082       .  S
N61          C65   1.345       .  A
N61          N62   1.324       .  A
N61         Cu69   2.072       .  S
N62          C63   1.346       .  A
N62        Cu162   2.077       .  S
C63          C64   1.380       .  A
C63          H66   1.082       .  S
C64          C88   1.436       .  S
C64          C65   1.378       .  A
C65          H67   1.083       .  S
Cu68         N71   2.076       .  S
Cu68        N156   2.077   1_545  S
Cu69         N79   2.072       .  S
Cu70         N72   2.077       .  S
Cu70         N78   2.077       .  S
N71          C75   1.346       .  A
N71          N72   1.324       .  A
N72          C73   1.346       .  A
C73          C74   1.380       .  A
C73          H76   1.082       .  S
C74          C85   1.438       .  S
C74          C75   1.380       .  A
C75          H77   1.082       .  S
N78          C82   1.346       .  A
N78         N173   1.322   1_545  A
N79          C80   1.345       .  A
N79         N172   1.322       .  A
C80         C175   1.383       .  A
C80          H83   1.082       .  S
C81          C82   1.384       .  A
C81         C174   1.383   1_545  A
C81         C151   1.473   1_545  S
C82          H84   1.082       .  S
C85          C86   1.206       .  T
C87          C88   1.206       .  T
C89          C90   1.206       .  T
C91          C92   1.206       .  T
C93          C94   1.205       .  T
C95          N96   1.364   1_556  A
C95         N100   1.364       .  A
C95         C187   1.435       .  S
N96          C97   1.357       .  A
C97          N98   1.349   1_554  A
C97         C112   1.472       .  S
N98          C99   1.349       .  A
C99         N100   1.358       .  A
C99         C124   1.473       .  S
C101        N102   1.364   1_556  A
C101        N106   1.364       .  A
C101        C188   1.435       .  S
N102        C103   1.358       .  A
C103        N104   1.349   1_554  A
C103        C109   1.473       .  S
N104        C105   1.349       .  A
C105        N106   1.357       .  A
C105        C121   1.472       .  S
C107        C296   1.541   1_455  S
C107        C113   1.531       .  S
C107        C111   1.541       .  S
C107        C185   1.467       .  S
C108        C295   1.541       .  S
C108        H115   1.086       .  S
C108        C109   1.366       .  D
C109        C298   1.538       .  S
C110        C297   1.538   1_455  S
C110        C114   1.535       .  S
C110        C112   1.537       .  S
C110        H116   1.112       .  S
C111        H117   1.086       .  S
C111        C112   1.365       .  D
C113        H118   1.087       .  S
C113        C114   1.362       .  D
C114        C184   1.442       .  S
C119        C308   1.541   1_455  S
C119        C125   1.531       .  S
C119        C123   1.541       .  S
C119        C181   1.467       .  S
C120        C307   1.541       .  S
C120        H127   1.086       .  S
C120        C121   1.365       .  D
C121        C310   1.537       .  S
C122        C309   1.537   1_455  S
C122        C126   1.535       .  S
C122        C124   1.538       .  S
C122        H128   1.112       .  S
C123        H129   1.086       .  S
C123        C124   1.366       .  D
C125        H130   1.087       .  S
C125        C126   1.362       .  D
C126        C180   1.442       .  S
N131        C135   1.345       .  A
N131        N132   1.324       .  A
N131       Cu139   2.072       .  S
N132        C133   1.346       .  A
C133        C134   1.380       .  A
C133        H136   1.082       .  S
C134        C186   1.436       .  S
C134        C135   1.378       .  A
C135        H137   1.083       .  S
Cu138       N141   2.076       .  S
Cu139       N149   2.072       .  S
Cu140       N142   2.077       .  S
Cu140       N148   2.077       .  S
N141        C145   1.346       .  A
N141        N142   1.324       .  A
N142        C143   1.346       .  A
C143        C144   1.380       .  A
C143        H146   1.082       .  S
C144        C183   1.438       .  S
C144        C145   1.380       .  A
C145        H147   1.082       .  S
N148        C152   1.346       .  A
N149        C150   1.345       .  A
C150        H153   1.082       .  S
C151        C152   1.384       .  A
C152        H154   1.082       .  S
N155        C159   1.345       .  A
N155        N156   1.324       .  A
N155       Cu163   2.072       .  S
N156        C157   1.346       .  A
C157        C158   1.380       .  A
C157        H160   1.082       .  S
C158        C182   1.436       .  S
C158        C159   1.378       .  A
C159        H161   1.083       .  S
Cu162       N165   2.076       .  S
Cu163       N173   2.072       .  S
Cu164       N166   2.077       .  S
Cu164       N172   2.077       .  S
N165        C169   1.346       .  A
N165        N166   1.324       .  A
N166        C167   1.346       .  A
C167        C168   1.380       .  A
C167        H170   1.082       .  S
C168        C179   1.438       .  S
C168        C169   1.380       .  A
C169        H171   1.082       .  S
N172        C176   1.346       .  A
N173        C174   1.345       .  A
C174        H177   1.082       .  S
C175        C176   1.384       .  A
C176        H178   1.082       .  S
C179        C180   1.206       .  T
C181        C182   1.206       .  T
C183        C184   1.206       .  T
C185        C186   1.206       .  T
C187        C188   1.205       .  T
C189        N190   1.364   1_556  A
C189        N194   1.364       .  A
C189        C281   1.435       .  S
N190        C191   1.357       .  A
C191        N192   1.349   1_554  A
C191        C206   1.472       .  S
N192        C193   1.349       .  A
C193        N194   1.358       .  A
C193        C218   1.473       .  S
C195        N196   1.364   1_556  A
C195        N200   1.364       .  A
C195        C282   1.435       .  S
N196        C197   1.358       .  A
C197        N198   1.349   1_554  A
C197        C203   1.473       .  S
N198        C199   1.349       .  A
C199        N200   1.357       .  A
C199        C215   1.472       .  S
C201        C207   1.531       .  S
C201        C205   1.541       .  S
C201        C279   1.467       .  S
C202        H209   1.086       .  S
C202        C203   1.366       .  D
C204        C208   1.535       .  S
C204        C206   1.537       .  S
C204        H210   1.112       .  S
C205        H211   1.086       .  S
C205        C206   1.365       .  D
C207        H212   1.087       .  S
C207        C208   1.362       .  D
C208        C278   1.442       .  S
C213        C219   1.531       .  S
C213        C217   1.541       .  S
C213        C275   1.467       .  S
C214        H221   1.086       .  S
C214        C215   1.365       .  D
C216        C220   1.535       .  S
C216        C218   1.538       .  S
C216        H222   1.112       .  S
C217        H223   1.086       .  S
C217        C218   1.366       .  D
C219        H224   1.087       .  S
C219        C220   1.362       .  D
C220        C274   1.442       .  S
N225        C229   1.345       .  A
N225        N226   1.324       .  A
N225       Cu233   2.072       .  S
N226        C227   1.346       .  A
N226       Cu326   2.077   1_545  S
C227        C228   1.380       .  A
C227        H230   1.082       .  S
C228        C280   1.436       .  S
C228        C229   1.378       .  A
C229        H231   1.083       .  S
Cu232       N320   2.077       .  S
Cu232       N235   2.076       .  S
Cu233       N243   2.072       .  S
Cu234       N236   2.077       .  S
Cu234       N242   2.077       .  S
N235        C239   1.346       .  A
N235        N236   1.324       .  A
N236        C237   1.346       .  A
C237        C238   1.380       .  A
C237        H240   1.082       .  S
C238        C277   1.438       .  S
C238        C239   1.380       .  A
C239        H241   1.082       .  S
N242        C246   1.346       .  A
N242        N337   1.322       .  A
N243        C244   1.345       .  A
N243        N336   1.322   1_545  A
C244        C339   1.383   1_545  A
C244        H247   1.082       .  S
C245        C338   1.383       .  A
C245        C246   1.384       .  A
C245        C363   1.473       .  S
C246        H248   1.082       .  S
N249        C253   1.345       .  A
N249        N250   1.324       .  A
N249       Cu257   2.072       .  S
N250        C251   1.346       .  A
N250       Cu350   2.077       .  S
C251        C252   1.380       .  A
C251        H254   1.082       .  S
C252        C276   1.436       .  S
C252        C253   1.378       .  A
C253        H255   1.083       .  S
Cu256       N344   2.077   1_545  S
Cu256       N259   2.076       .  S
Cu257       N267   2.072       .  S
Cu258       N260   2.077       .  S
Cu258       N266   2.077       .  S
N259        C263   1.346       .  A
N259        N260   1.324       .  A
N260        C261   1.346       .  A
C261        C262   1.380       .  A
C261        H264   1.082       .  S
C262        C273   1.438       .  S
C262        C263   1.380       .  A
C263        H265   1.082       .  S
N266        C270   1.346       .  A
N266        N361   1.322   1_545  A
N267        C268   1.345       .  A
N267        N360   1.322       .  A
C268        C363   1.383       .  A
C268        H271   1.082       .  S
C269        C362   1.383   1_545  A
C269        C270   1.384       .  A
C269        C339   1.473   1_545  S
C270        H272   1.082       .  S
C273        C274   1.206       .  T
C275        C276   1.206       .  T
C277        C278   1.206       .  T
C279        C280   1.206       .  T
C281        C282   1.205       .  T
C283        N284   1.364   1_556  A
C283        N288   1.364       .  A
C283        C375   1.435       .  S
N284        C285   1.357       .  A
C285        N286   1.349   1_554  A
C285        C300   1.472       .  S
N286        C287   1.349       .  A
C287        N288   1.358       .  A
C287        C312   1.473       .  S
C289        N290   1.364   1_556  A
C289        N294   1.364       .  A
C289        C376   1.435       .  S
N290        C291   1.358       .  A
C291        N292   1.349   1_554  A
C291        C297   1.473       .  S
N292        C293   1.349       .  A
C293        N294   1.357       .  A
C293        C309   1.472       .  S
C295        C301   1.531       .  S
C295        C299   1.541       .  S
C295        C373   1.467       .  S
C296        H303   1.086       .  S
C296        C297   1.366       .  D
C298        C302   1.535       .  S
C298        C300   1.537       .  S
C298        H304   1.112       .  S
C299        H305   1.086       .  S
C299        C300   1.365       .  D
C301        H306   1.087       .  S
C301        C302   1.362       .  D
C302        C372   1.442       .  S
C307        C313   1.531       .  S
C307        C311   1.541       .  S
C307        C369   1.467       .  S
C308        H315   1.086       .  S
C308        C309   1.365       .  D
C310        C314   1.535       .  S
C310        C312   1.538       .  S
C310        H316   1.112       .  S
C311        H317   1.086       .  S
C311        C312   1.366       .  D
C313        H318   1.087       .  S
C313        C314   1.362       .  D
C314        C368   1.442       .  S
N319        C323   1.345       .  A
N319        N320   1.324       .  A
N319       Cu327   2.072       .  S
N320        C321   1.346       .  A
C321        C322   1.380       .  A
C321        H324   1.082       .  S
C322        C374   1.436       .  S
C322        C323   1.378       .  A
C323        H325   1.083       .  S
Cu326       N329   2.076       .  S
Cu327       N337   2.072       .  S
Cu328       N330   2.077       .  S
Cu328       N336   2.077       .  S
N329        C333   1.346       .  A
N329        N330   1.324       .  A
N330        C331   1.346       .  A
C331        C332   1.380       .  A
C331        H334   1.082       .  S
C332        C371   1.438       .  S
C332        C333   1.380       .  A
C333        H335   1.082       .  S
N336        C340   1.346       .  A
N337        C338   1.345       .  A
C338        H341   1.082       .  S
C339        C340   1.384       .  A
C340        H342   1.082       .  S
N343        C347   1.345       .  A
N343        N344   1.324       .  A
N343       Cu351   2.072       .  S
N344        C345   1.346       .  A
C345        C346   1.380       .  A
C345        H348   1.082       .  S
C346        C370   1.436       .  S
C346        C347   1.378       .  A
C347        H349   1.083       .  S
Cu350       N353   2.076       .  S
Cu351       N361   2.072       .  S
Cu352       N354   2.077       .  S
Cu352       N360   2.077       .  S
N353        C357   1.346       .  A
N353        N354   1.324       .  A
N354        C355   1.346       .  A
C355        C356   1.380       .  A
C355        H358   1.082       .  S
C356        C367   1.438       .  S
C356        C357   1.380       .  A
C357        H359   1.082       .  S
N360        C364   1.346       .  A
N361        C362   1.345       .  A
C362        H365   1.082       .  S
C363        C364   1.384       .  A
C364        H366   1.082       .  S
C367        C368   1.206       .  T
C369        C370   1.206       .  T
C371        C372   1.206       .  T
C373        C374   1.206       .  T
C375        C376   1.205       .  T
