geometry optimzed in LAMMPS
_audit_creation_date              2020-11-30 
_audit_creation_method            'lammps2cif' 
_symmetry_space_group_name_H-M    'P1' 
_symmetry_Int_Tables_number       1 
_symmetry_cell_setting            triclinic 
loop_ 
_symmetry_equiv_pos_as_xyz 
  x,y,z 
_cell_length_a                    55.45640072 
_cell_length_b                    55.5773265977801 
_cell_length_c                    55.307511579803304 
_cell_angle_alpha                 90.39247986755491 
_cell_angle_beta                  90.56082311845941 
_cell_angle_gamma                 90.38829843673787 
loop_ 
_atom_site_label 
_atom_site_type_symbol 
_atom_site_fract_x 
_atom_site_fract_y 
_atom_site_fract_z 
_atom_site_charge 
O1          O  0.50474989  0.48191224  0.44136173    -0.78400
C2          C  0.43987645  0.53090551  0.45066779     0.82700
O3          O  0.52779762  0.54240850  0.49406307    -0.79500
O4          O  0.44780513  0.53110610  0.52671937    -0.81000
O5          O  0.45861822  0.44860130  0.51167271    -0.80800
O6          O  0.50350760  0.45018236  0.46539077    -0.79400
Zn7        Zn  0.48814839  0.50809501  0.45928756     1.55700
O8          O  0.43182208  0.47819316  0.51321017    -0.80800
Cd9        Cd  0.48784729  0.46540832  0.49566784     1.59700
Cd10       Cd  0.50590949  0.51953182  0.51521637     1.59600
O11         O  0.51411443  0.46000036  0.52033565    -0.80800
O12         O  0.48349326  0.50059469  0.49258982    -1.91300
Cd13       Cd  0.44941054  0.50729013  0.49915874     1.59900
O14         O  0.52748500  0.49513120  0.53521574    -0.80800
O15         O  0.43227945  0.52483920  0.47140663    -0.79400
C16         C  0.52678971  0.54507507  0.47111238     0.83100
C17         C  0.51115842  0.46062099  0.44644547     0.82800
O18         O  0.45993139  0.52339355  0.44277871    -0.78400
C19         C  0.43866816  0.45716615  0.51899638     0.83600
O20         O  0.51220323  0.53332446  0.45784888    -0.78500
C21         C  0.52799114  0.47210177  0.53415212     0.83700
C22         C  0.46222622  0.54240220  0.54068069     0.84000
O23         O  0.48515028  0.54049230  0.53917299    -0.80900
O24         O  0.47437032  0.20214131  0.22426323    -0.78400
C25         C  0.54352191  0.20648036  0.26830373     0.82700
O26         O  0.46260579  0.25590724  0.28906872    -0.79500
O27         O  0.54366328  0.28312961  0.26922684    -0.81000
O28         O  0.52238672  0.26764274  0.18870955    -0.80800
O29         O  0.47528359  0.22722648  0.19323152    -0.79400
Zn30       Zn  0.49385099  0.21871635  0.25016925     1.55700
O31         O  0.55291218  0.26752502  0.21507520    -0.80800
Cd32       Cd  0.49363899  0.25580862  0.20829378     1.59700
Cd33       Cd  0.48384753  0.27472807  0.26417417     1.59600
O34         O  0.47027644  0.28343163  0.20571504    -0.80800
O35         O  0.50166524  0.25128638  0.24270654    -1.91300
Cd36       Cd  0.53691161  0.25558818  0.24606997     1.59900
O37         O  0.46249196  0.29713988  0.24290563    -0.80800
O38         O  0.55263345  0.22662008  0.26235576    -0.79400
C39         C  0.46148578  0.23314017  0.29183332     0.83100
C40         C  0.46763203  0.20806947  0.20309629     0.82800
O41         O  0.52219501  0.20039291  0.26200628    -0.78400
C42         C  0.54396931  0.27313562  0.19462867     0.83600
O43         O  0.47269271  0.21866305  0.27827899    -0.78500
C44         C  0.45978147  0.29780969  0.21998620     0.83700
C45         C  0.53150469  0.29739918  0.28218436     0.84000
O46         O  0.50850641  0.29670005  0.28287894    -0.80900
C47         C  0.78557856  0.77104483  0.79650553     0.80300
N48         N  0.76571402  0.78142147  0.80638633    -0.78000
C49         C  0.75499362  0.80062523  0.79564075     0.82800
N50         N  0.76460900  0.80947300  0.77498756    -0.77900
C51         C  0.78435195  0.79946960  0.76474638     0.82900
N52         N  0.79460795  0.78016533  0.77564804    -0.79600
C53         C  0.76272154  0.96733826  0.94895888     0.80300
N54         N  0.77369443  0.98705049  0.93960737    -0.78000
C55         C  0.79378644  0.99673214  0.95018997     0.82800
N56         N  0.80314881  0.98609978  0.97029220    -0.77900
C57         C  0.79251478  0.96617020  0.97980615     0.82900
N58         N  0.77231120  0.95703773  0.96899894    -0.79600
C59         C  0.94824463  0.79942763  0.98077863     0.80300
N60         N  0.93991082  0.77815131  0.97168477    -0.78000
C61         C  0.95125818  0.76693816  0.95312807     0.82800
N62         N  0.97112394  0.77757749  0.94351109    -0.77900
C63         C  0.97977354  0.79892144  0.95227518     0.82900
N64         N  0.96825826  0.80961925  0.97106730    -0.79600
C65         C  0.94507906  0.95498885  0.76136983     0.80300
N66         N  0.93586983  0.97513355  0.77167271    -0.78000
C67         C  0.94613201  0.98501381  0.79183385     0.82800
N68         N  0.96603080  0.97452473  0.80161360    -0.77900
C69         C  0.97545512  0.95421182  0.79166858     0.82900
N70         N  0.96479657  0.94462150  0.77156189    -0.79600
N71         N  0.06399948  0.88107551  0.87435003    -0.36500
N72         N  0.10030292  0.90951139  0.84918248    -0.57100
N73         N  0.13758782  0.88685074  0.87850448    -0.36500
N74         N  0.10129821  0.86123281  0.90616903    -0.57100
C75         C  0.04965309  0.89619552  0.86170825     0.27100
C76         C  0.05021934  0.87050755  0.89140001     0.27100
C77         C  0.15023348  0.90482071  0.86815949     0.27100
C78         C  0.15087517  0.87900830  0.89744271     0.27100
C79         C  0.08092649  0.91483042  0.83526871     0.35700
C80         C  0.11995113  0.91770419  0.83743141     0.35700
C81         C  0.08232508  0.84756177  0.91301203     0.35700
C82         C  0.12133525  0.85022034  0.91460566     0.35700
C83         C  0.02639283  0.89495073  0.87068978    -0.21800
C84         C  0.02674959  0.87874354  0.88935117    -0.21800
C85         C  0.17179647  0.90839075  0.88068249    -0.21800
C86         C  0.17214986  0.89212778  0.89922074    -0.21800
C87         C  0.08827849  0.92683120  0.81467514    -0.22800
C88         C  0.11304461  0.92860483  0.81602698    -0.22800
C89         C  0.09028274  0.82805250  0.92627049    -0.22800
C90         C  0.11499890  0.82961986  0.92711838    -0.22800
C91         C  0.05662924  0.91047765  0.84174176    -0.18200
C92         C  0.05786056  0.85273068  0.90798984    -0.18200
C93         C  0.14517193  0.85909015  0.91197616    -0.18200
C94         C  0.14381101  0.91675129  0.84662403    -0.18200
H95         H  0.01069950  0.90465121  0.86441749     0.14700
H96         H  0.01141888  0.87357553  0.90016057     0.14700
H97         H  0.18602687  0.92113046  0.87669404     0.14700
H98         H  0.18661530  0.88991040  0.91227934     0.14700
H99         H  0.07696036  0.93381160  0.80033156     0.13000
H100        H  0.12459615  0.93725133  0.80298113     0.13000
H101        H  0.07942833  0.81402001  0.93430125     0.13000
H102        H  0.12687979  0.81697886  0.93594181     0.13000
H103        H  0.08184858  0.87724876  0.87078365     0.26300
H104        H  0.12178048  0.87909165  0.87188940     0.26300
N105        N  0.86950337  0.88287817  0.06443285    -0.36500
N106        N  0.89631931  0.85660374  0.10132025    -0.57100
N107        N  0.87079951  0.88333844  0.13843857    -0.36500
N108        N  0.84678731  0.91204626  0.10188835    -0.57100
C109        C  0.88606095  0.87156125  0.05066487     0.27100
C110        C  0.85984512  0.90071289  0.05096705     0.27100
C111        C  0.88807136  0.87255568  0.15172373     0.27100
C112        C  0.86203385  0.90144289  0.15206847     0.27100
C113        C  0.90238800  0.84346766  0.08171237     0.35700
C114        C  0.90271238  0.84358779  0.12087555     0.35700
C115        C  0.83398591  0.91945971  0.08245353     0.35700
C116        C  0.83448777  0.91923276  0.12161273     0.35700
C117        C  0.88674603  0.88220750  0.02805693    -0.21800
C118        C  0.87019566  0.90055470  0.02823839    -0.21800
C119        C  0.89029490  0.88392853  0.17407433    -0.21800
C120        C  0.87383323  0.90222219  0.17426691    -0.21800
C121        C  0.91297119  0.82207553  0.08886125    -0.22800
C122        C  0.91320232  0.82217925  0.11373631    -0.22800
C123        C  0.81362563  0.93171169  0.08985503    -0.22800
C124        C  0.81393030  0.93153511  0.11471068    -0.22800
C125        C  0.89977255  0.85120768  0.05752148    -0.18200
C126        C  0.84106538  0.91631340  0.05816978    -0.18200
C127        C  0.84235777  0.91597657  0.14572532    -0.18200
C128        C  0.90044717  0.85155717  0.14500834    -0.18200
H129        H  0.89793423  0.87721724  0.01292585     0.14700
H130        H  0.86617557  0.91238060  0.01328299     0.14700
H131        H  0.90221498  0.87927308  0.18890492     0.14700
H132        H  0.87056908  0.91439349  0.18922410     0.14700
H133        H  0.91993793  0.80795668  0.07736347     0.13000
H134        H  0.92041633  0.80823161  0.12523926     0.13000
H135        H  0.79999923  0.93993189  0.07853022     0.13000
H136        H  0.80063057  0.93962760  0.12636430     0.13000
H137        H  0.86410900  0.87785222  0.08157602     0.26300
H138        H  0.86406234  0.87747224  0.12182932     0.26300
N139        N  0.86129271  0.87761188  0.67617607    -0.36500
N140        N  0.83023480  0.85532224  0.63971507    -0.57100
N141        N  0.85824766  0.87932716  0.60218500    -0.36500
N142        N  0.88695444  0.90426551  0.63861505    -0.57100
C143        C  0.84406606  0.86775424  0.69029853     0.27100
C144        C  0.87346422  0.89409065  0.68976416     0.27100
C145        C  0.83953148  0.87058544  0.58902353     0.27100
C146        C  0.86940783  0.89589400  0.58841594     0.27100
C147        C  0.82263290  0.84282323  0.65910538     0.35700
C148        C  0.82091190  0.84407105  0.61999502     0.35700
C149        C  0.90048979  0.91093094  0.65797392     0.35700
C150        C  0.89919412  0.91117945  0.61878616     0.35700
C151        C  0.84551087  0.87788883  0.71324481    -0.21800
C152        C  0.86395572  0.89455484  0.71288457    -0.21800
C153        C  0.83888257  0.88155735  0.56656936    -0.21800
C154        C  0.85775607  0.89755393  0.56618744    -0.21800
C155        C  0.80793982  0.82383364  0.65170086    -0.22800
C156        C  0.80686754  0.82461315  0.62687290    -0.22800
C157        C  0.92133839  0.92245544  0.65040511    -0.22800
C158        C  0.92049722  0.92262250  0.62554007    -0.22800
C159        C  0.82780378  0.84908659  0.68342226    -0.18200
C160        C  0.89369661  0.90787195  0.68236530    -0.18200
C161        C  0.89056084  0.90866579  0.59477441    -0.18200
C162        C  0.82401415  0.85178618  0.59594327    -0.18200
H163        H  0.83444497  0.87371191  0.72868959     0.14700
H164        H  0.86980907  0.90564209  0.72802915     0.14700
H165        H  0.82626578  0.87820735  0.55185485     0.14700
H166        H  0.86247187  0.90894404  0.55113376     0.14700
H167        H  0.79882220  0.81088547  0.66299946     0.13000
H168        H  0.79676981  0.81238563  0.61523242     0.13000
H169        H  0.93557886  0.93010423  0.66162059     0.13000
H170        H  0.93386513  0.93049164  0.61379641     0.13000
H171        H  0.86545386  0.87239820  0.65870454     0.26300
H172        H  0.86397914  0.87314912  0.61889942     0.26300
N173        N  0.86934676  0.68355034  0.87281402    -0.36500
N174        N  0.89683427  0.64476284  0.89557327    -0.57100
N175        N  0.86822581  0.60962156  0.86817028    -0.36500
N176        N  0.84312496  0.64835105  0.84299167    -0.57100
C177        C  0.88662561  0.69662443  0.88454988     0.27100
C178        C  0.85753212  0.69848295  0.85750322     0.27100
C179        C  0.88515586  0.59521790  0.87795460     0.27100
C180        C  0.85769865  0.59712076  0.84987713     0.27100
C181        C  0.90573807  0.66350885  0.90863505     0.35700
C182        C  0.90417970  0.62448883  0.90676497     0.35700
C183        C  0.83061571  0.66819893  0.83674960     0.35700
C184        C  0.83083189  0.62923061  0.83378413     0.35700
C185        C  0.88535609  0.72033916  0.87690855    -0.21800
C186        C  0.86722080  0.72145405  0.85980384    -0.21800
C187        C  0.88515458  0.57320621  0.86599756    -0.21800
C188        C  0.86787040  0.57442099  0.84823730    -0.21800
C189        C  0.91922201  0.65503147  0.92802611    -0.22800
C190        C  0.91810003  0.63032415  0.92691353    -0.22800
C191        C  0.81034598  0.66159992  0.82329815    -0.22800
C192        C  0.81057407  0.63693456  0.82130298    -0.22800
C193        C  0.90284330  0.68811698  0.90268393    -0.18200
C194        C  0.83777627  0.69224889  0.84200656    -0.18200
C195        C  0.83833692  0.60502201  0.83536066    -0.18200
C196        C  0.89975756  0.60081553  0.89819197    -0.18200
H197        H  0.89627720  0.73543168  0.88303629     0.14700
H198        H  0.86175876  0.73746067  0.85021670     0.14700
H199        H  0.89634154  0.55776374  0.86972412     0.14700
H200        H  0.86320220  0.56006058  0.83569432     0.14700
H201        H  0.92897648  0.66549606  0.94153112     0.13000
H202        H  0.92683630  0.61806685  0.93929242     0.13000
H203        H  0.79687003  0.67332744  0.81555050     0.13000
H204        H  0.79738182  0.62593499  0.81171963     0.13000
H205        H  0.86516117  0.66572572  0.87583923     0.26300
H206        H  0.86318865  0.62636811  0.87453010     0.26300
N207        N  0.67315580  0.88948590  0.86795262    -0.36500
N208        N  0.63483056  0.85855008  0.85006013    -0.57100
N209        N  0.59978578  0.89060646  0.87302217    -0.36500
N210        N  0.63829378  0.91997161  0.89311808    -0.57100
C211        C  0.68603557  0.87150897  0.85768829     0.27100
C212        C  0.68825001  0.90163700  0.88316564     0.27100
C213        C  0.58896318  0.86884985  0.87143851     0.27100
C214        C  0.59053032  0.90164960  0.89255733     0.27100
C215        C  0.65260146  0.85055455  0.83567110     0.35700
C216        C  0.61390750  0.85011677  0.84055007     0.35700
C217        C  0.65876382  0.93013557  0.90198590     0.35700
C218        C  0.61956688  0.93246711  0.90239206     0.35700
C219        C  0.70960158  0.87248599  0.86624764    -0.21800
C220        C  0.71099609  0.89141833  0.88227451    -0.21800
C221        C  0.57322471  0.86571957  0.89045283    -0.21800
C222        C  0.57497632  0.88624665  0.90443022    -0.21800
C223        C  0.64294235  0.83665404  0.81699017    -0.22800
C224        C  0.61828253  0.83643152  0.82006297    -0.22800
C225        C  0.65312452  0.94892309  0.91743539    -0.22800
C226        C  0.62847037  0.94996874  0.91825355    -0.22800
C227        C  0.67740563  0.85462900  0.84023071    -0.18200
C228        C  0.68247160  0.92187999  0.89772895    -0.18200
C229        C  0.59490271  0.92585272  0.89859765    -0.18200
C230        C  0.59142677  0.85324293  0.85169400    -0.18200
H231        H  0.72430344  0.86068385  0.86155510     0.14700
H232        H  0.72700982  0.89693056  0.89225131     0.14700
H233        H  0.56179143  0.85031898  0.89394564     0.14700
H234        H  0.56525594  0.88985161  0.92092460     0.14700
H235        H  0.65265484  0.82751490  0.80279188     0.13000
H236        H  0.60518553  0.82693040  0.80886536     0.13000
H237        H  0.66542367  0.95994018  0.92812360     0.13000
H238        H  0.61876775  0.96101424  0.93095627     0.13000
H239        H  0.65535304  0.89372933  0.86409255     0.26300
H240        H  0.61120041  0.89832836  0.86027462     0.26300
N241        N  0.87501774  0.07816286  0.86975441    -0.36500
N242        N  0.90457884  0.11260485  0.84394246    -0.57100
N243        N  0.87824652  0.15163017  0.86716116    -0.36500
N244        N  0.85097032  0.11712491  0.89533270    -0.57100
C245        C  0.89235509  0.06378916  0.86062931     0.27100
C246        C  0.86445766  0.06607906  0.88801337     0.27100
C247        C  0.89688416  0.16375678  0.85732951     0.27100
C248        C  0.86855948  0.16619799  0.88408030     0.27100
C249        C  0.90989282  0.09244073  0.83136818     0.35700
C250        C  0.91175187  0.13133688  0.83030958     0.35700
C251        C  0.83747901  0.09840808  0.90304780     0.35700
C252        C  0.83904021  0.13737798  0.90142298     0.35700
C253        C  0.89279946  0.04229910  0.87319170    -0.21800
C254        C  0.87515760  0.04372169  0.89045581    -0.21800
C255        C  0.89903137  0.18630716  0.86805413    -0.21800
C256        C  0.88105964  0.18790016  0.88486026    -0.21800
C257        C  0.92064283  0.09834645  0.80966459    -0.22800
C258        C  0.92186556  0.12306625  0.80900885    -0.22800
C259        C  0.81697733  0.10679520  0.91440138    -0.22800
C260        C  0.81799142  0.13153780  0.91340418    -0.22800
C261        C  0.90651001  0.06887561  0.84013026    -0.18200
C262        C  0.84433877  0.07400169  0.90136914    -0.18200
C263        C  0.84789057  0.16099206  0.89781691    -0.18200
C264        C  0.91094511  0.15564773  0.83783333    -0.18200
H265        H  0.90444650  0.02706727  0.87004414     0.14700
H266        H  0.87056058  0.02976339  0.90319250     0.14700
H267        H  0.91199652  0.20030968  0.86397109     0.14700
H268        H  0.87752897  0.20337617  0.89623173     0.14700
H269        H  0.92723317  0.08612642  0.79595532     0.13000
H270        H  0.92960344  0.13373268  0.79469732     0.13000
H271        H  0.80295453  0.09620943  0.92280468     0.13000
H272        H  0.80493250  0.14381724  0.92091480     0.13000
H273        H  0.86951928  0.09454271  0.86276836     0.26300
H274        H  0.87155076  0.13501611  0.86152833     0.26300
O275        O  0.26200371  0.55444952  0.21086134    -0.78400
C276        C  0.19970307  0.56166612  0.26365724     0.82700
O277        O  0.27869888  0.51622540  0.28668510    -0.79500
O278        O  0.19932464  0.48459430  0.27677070    -0.81000
O279        O  0.20940589  0.48316053  0.19621719    -0.80800
O280        O  0.25333280  0.52471112  0.18514100    -0.79400
Zn281      Zn  0.24655708  0.54494302  0.24211905     1.55700
O282        O  0.18158417  0.49236268  0.22332010    -0.80800
Cd283      Cd  0.23988442  0.49977998  0.20850507     1.59700
Cd284      Cd  0.25831387  0.49252570  0.26463729     1.59600
O285        O  0.26516311  0.47406783  0.20741249    -0.80800
O286        O  0.23727150  0.51169819  0.24190438    -1.91300
Cd287      Cd  0.20269386  0.50875891  0.24986285     1.59900
O288        O  0.28200396  0.47131923  0.24411952    -0.80800
O289        O  0.19003742  0.54082499  0.26278196    -0.79400
C290        C  0.28186184  0.53884441  0.28398210     0.83100
C291        C  0.26393233  0.54447853  0.19015370     0.82800
O292        O  0.21996526  0.56619719  0.25393474    -0.78400
C293        C  0.18812824  0.48127841  0.20428340     0.83600
O294        O  0.27146092  0.55048675  0.26729547    -0.78500
C295        C  0.28091878  0.46562901  0.22169017     0.83700
C296        C  0.21301017  0.47017756  0.28798105     0.84000
O297        O  0.23595594  0.47029742  0.28568652    -0.80900
O298        O  0.25807372  0.20056020  0.52717643    -0.78400
C299        C  0.19904944  0.20035907  0.47014701     0.82700
O300        O  0.28578085  0.24617046  0.46187989    -0.79500
O301        O  0.20587700  0.27487309  0.45962787    -0.81000
O302        O  0.20608596  0.27197898  0.54481003    -0.80800
O303        O  0.25205300  0.22882118  0.55511679    -0.79400
Zn304      Zn  0.24557189  0.21387185  0.49621792     1.55700
O305        O  0.18400492  0.27007502  0.51110260    -0.80800
Cd306      Cd  0.23777439  0.25587193  0.53414347     1.59700
Cd307      Cd  0.26201635  0.26822974  0.48117877     1.59600
O308        O  0.26182448  0.28272600  0.54000992    -0.80800
O309        O  0.23833991  0.24736831  0.49937294    -1.91300
Cd310      Cd  0.20524061  0.25177731  0.48737533     1.59900
O311        O  0.28161459  0.28992572  0.50582087    -0.80800
O312        O  0.19014104  0.22114160  0.47337298    -0.79400
C313        C  0.28750307  0.22326975  0.46252488     0.83100
C314        C  0.26129606  0.20894911  0.54844192     0.82800
O315        O  0.21938519  0.19467042  0.47925567    -0.78400
C316        C  0.18764405  0.27807214  0.53241675     0.83600
O317        O  0.27341770  0.21039026  0.47495090    -0.78500
C318        C  0.27799877  0.29370891  0.52831793     0.83700
C319        C  0.22080482  0.28961981  0.45072937     0.84000
O320        O  0.24302749  0.29037294  0.45707363    -0.80900
O321        O  0.50956101  0.78219452  0.80874965    -0.78400
C322        C  0.44587706  0.73472764  0.80361674     0.82700
O323        O  0.52825863  0.71477802  0.75631631    -0.79500
O324        O  0.44733026  0.72556671  0.73010777    -0.81000
O325        O  0.46586660  0.80891061  0.73357922    -0.80800
O326        O  0.50483933  0.81268556  0.78370928    -0.79400
Zn327      Zn  0.49512513  0.75394683  0.79134009     1.55700
O328        O  0.43644729  0.78158319  0.73557131    -0.80800
Cd329      Cd  0.49321985  0.79368797  0.75335410     1.59700
Cd330      Cd  0.50643638  0.73791101  0.73552464     1.59600
O331        O  0.52161839  0.79588239  0.73129626    -0.80800
O332        O  0.48732579  0.75916069  0.75832090    -1.91300
Cd333      Cd  0.45246230  0.75356110  0.75345893     1.59900
O334        O  0.52927787  0.75992244  0.71483025    -0.80800
O335        O  0.43586790  0.74206537  0.78425125    -0.79400
C336        C  0.53163815  0.71551112  0.77921288     0.83100
C337        C  0.51285354  0.80417283  0.80354006     0.82800
O338        O  0.46788526  0.73920651  0.80848399    -0.78400
C339        C  0.44507135  0.80114075  0.72730779     0.83600
O340        O  0.52019162  0.72983710  0.79270913    -0.78500
C341        C  0.53336892  0.78252270  0.71703668     0.83700
C342        C  0.45998125  0.71411055  0.71496175     0.84000
O343        O  0.48278258  0.71732322  0.71325969    -0.80900
O344        O  0.18442122  0.73146719  0.97681257    -0.78400
C345        C  0.19363606  0.77412708  0.04708739     0.82700
O346        O  0.23525183  0.79658082  0.96035762    -0.79500
O347        O  0.26774604  0.78280916  0.04012855    -0.81000
O348        O  0.25304103  0.69701963  0.02131108    -0.80800
O349        O  0.21078930  0.70172973  0.97512579    -0.79400
Zn350      Zn  0.20209769  0.75754484  0.99577386     1.55700
O351        O  0.26150076  0.72531051  0.04886185    -0.80800
Cd352      Cd  0.23958256  0.71696995  0.99329620     1.59700
Cd353      Cd  0.25728772  0.77287241  0.98054462     1.59600
O354        O  0.26696769  0.71449822  0.97012428    -0.80800
O355        O  0.23570203  0.75141762  0.00091218    -1.91300
Cd356      Cd  0.24367405  0.75526227  0.03568385     1.59900
O357        O  0.27989957  0.75095668  0.95910213    -0.80800
O358        O  0.21440399  0.76773082  0.05460844    -0.79400
C359        C  0.21250209  0.79963737  0.96248140     0.83100
C360        C  0.19065943  0.71080573  0.96904421     0.82800
O361        O  0.18612189  0.76893543  0.02584167    -0.78400
C362        C  0.26394858  0.70403839  0.04047863     0.83600
O363        O  0.19965096  0.78594126  0.97534605    -0.78500
C364        C  0.28122037  0.72795732  0.95856818     0.83700
C365        C  0.28020321  0.79625609  0.02655338     0.84000
O366        O  0.27926352  0.79457910  0.00347731    -0.80900
O367        O  0.01755780  0.49705630  0.04987390    -0.78400
C368        C  0.96780249  0.56018131  0.03748104     0.82700
O369        O  0.95154101  0.46940550  0.00424998    -0.79500
O370        O  0.96432591  0.54599791  0.96251891    -0.81000
O371        O  0.04605953  0.53400791  0.97384699    -0.80800
O372        O  0.04603471  0.49260281  0.02216678    -0.79400
Zn373      Zn  0.98947793  0.51078801  0.03228264     1.55700
O374        O  0.01770885  0.56205049  0.97281988    -0.80800
Cd375      Cd  0.02909092  0.50661771  0.99226574     1.59700
Cd376      Cd  0.97295320  0.48893566  0.97957720     1.59600
O377        O  0.03151636  0.47916123  0.96862790    -0.80800
O378        O  0.99454336  0.51245801  0.99823769    -1.91300
Cd379      Cd  0.98890774  0.54615562  0.98924693     1.59900
O380        O  0.99473110  0.46476006  0.95985788    -0.80800
O381        O  0.97303008  0.56613091  0.01599980    -0.79400
C382        C  0.95173734  0.47117955  0.02732848     0.83100
C383        C  0.03755652  0.48837997  0.04303350     0.82800
O384        O  0.97504842  0.54045213  0.04645085    -0.78400
C385        C  0.03807993  0.55404390  0.96625453     0.83600
O386        O  0.96503501  0.48621392  0.03848155    -0.78500
C387        C  0.01769122  0.46435880  0.95777607     0.83700
C388        C  0.95112498  0.53109130  0.95104148     0.84000
O389        O  0.95121422  0.50847836  0.95523040    -0.80900
O390        O  0.31015593  0.02231632  0.77788214    -0.78400
C391        C  0.29809012  0.95756586  0.72855813     0.82700
O392        O  0.25493834  0.04615764  0.71737836    -0.79500
O393        O  0.22676898  0.96502821  0.72449132    -0.81000
O394        O  0.23544936  0.98103780  0.80989039    -0.80800
O395        O  0.28569985  0.02181364  0.80948478    -0.79400
Zn396      Zn  0.29096092  0.00738059  0.75046399     1.55700
O397        O  0.23178284  0.95325981  0.78080193    -0.80800
Cd398      Cd  0.25461690  0.00823079  0.79327605     1.59700
Cd399      Cd  0.23482149  0.02301722  0.73894301     1.59600
O400        O  0.23242057  0.03654042  0.79738503    -0.80800
O401        O  0.25786245  0.00216545  0.75826141    -1.91300
Cd402      Cd  0.25061150  0.96783008  0.75240179     1.59900
O403        O  0.21469818  0.04494729  0.76216195    -0.80800
O404        O  0.27943689  0.94902979  0.73881264    -0.79400
C405        C  0.27783676  0.04773853  0.71615807     0.83100
C406        C  0.30508784  0.02877570  0.79939438     0.82800
O407        O  0.30519123  0.97915119  0.73238184    -0.78400
C408        C  0.22608737  0.96164946  0.80147911     0.83600
O409        O  0.29176693  0.03379023  0.72757338    -0.78500
C410        C  0.21774441  0.04870277  0.78481119     0.83700
C411        C  0.21293763  0.97891761  0.71281450     0.84000
O412        O  0.21249982  0.00162769  0.71653393    -0.80900
O413        O  0.68080354  0.73586628  0.47445028    -0.78400
C414        C  0.68847741  0.77742945  0.54191848     0.82700
O415        O  0.73524316  0.79747689  0.45316335    -0.79500
O416        O  0.75929687  0.78528586  0.53614970    -0.81000
O417        O  0.76025249  0.70710474  0.50849854    -0.80800
O418        O  0.70380025  0.70424106  0.48225442    -0.79400
Zn419      Zn  0.69841634  0.76363211  0.48987133     1.55700
O420        O  0.75665305  0.72891495  0.54214701    -0.80800
Cd421      Cd  0.73547145  0.72245264  0.48596675     1.59700
Cd422      Cd  0.75492858  0.77484566  0.47641405     1.59600
O423        O  0.75104159  0.72128591  0.45295460    -0.80800
O424        O  0.73093307  0.75582554  0.49539565    -1.91300
Cd425      Cd  0.73679340  0.75737887  0.53024369     1.59900
O426        O  0.77814255  0.75007478  0.45899190    -0.80800
O427        O  0.70704167  0.76659341  0.54993848    -0.79400
C428        C  0.71254145  0.80154781  0.45347827     0.83100
C429        C  0.68494549  0.71339852  0.47294880     0.82800
O430        O  0.68298299  0.77709867  0.51953474    -0.78400
C431        C  0.76674706  0.71232850  0.53002175     0.83600
O432        O  0.69811531  0.78992365  0.46675430    -0.78500
C433        C  0.77224541  0.72943377  0.45026761     0.83700
C434        C  0.77336609  0.79811576  0.52366000     0.84000
O435        O  0.77484705  0.79629250  0.50067877    -0.80900
O436        O  0.01027062  0.78227090  0.30537143    -0.78400
C437        C  0.94597416  0.73494812  0.30003957     0.82700
O438        O  0.03324106  0.72551206  0.24820860    -0.79500
O439        O  0.94770840  0.72811278  0.22650873    -0.81000
O440        O  0.96137105  0.81450053  0.23864275    -0.80800
O441        O  0.00924826  0.81305403  0.28015554    -0.79400
Zn442      Zn  0.99495339  0.75498260  0.28710608     1.55700
O443        O  0.93645691  0.78369213  0.23124131    -0.80800
Cd444      Cd  0.99135569  0.79732868  0.25147316     1.59700
Cd445      Cd  0.00596374  0.74398989  0.22998345     1.59600
O446        O  0.01497157  0.80267350  0.22467598    -0.80800
O447        O  0.98652446  0.76239058  0.25465549    -1.91300
Cd448      Cd  0.95189028  0.75580992  0.25014552     1.59900
O449        O  0.02250087  0.76782080  0.20609706    -0.80800
O450        O  0.93568581  0.74337119  0.28119580    -0.79400
C451        C  0.03610805  0.72353488  0.27102272     0.83100
C452        C  0.01689580  0.80334172  0.29948476     0.82800
O453        O  0.96829382  0.73845349  0.30439218    -0.78400
C454        C  0.94336040  0.80525654  0.22749871     0.83600
O455        O  0.02194098  0.73293114  0.28613570    -0.78500
C456        C  0.02498882  0.79058363  0.20814276     0.83700
C457        C  0.96088337  0.71682733  0.21172506     0.84000
O458        O  0.98360325  0.72033851  0.21027876    -0.80900
O459        O  0.55257058  0.04126902  0.98638176    -0.78400
C460        C  0.54441510  0.98211526  0.04189618     0.82700
O461        O  0.50426179  0.97631565  0.95434226    -0.79500
O462        O  0.46968982  0.98030068  0.03593652    -0.81000
O463        O  0.47526176  0.06097184  0.02785342    -0.80800
O464        O  0.52487112  0.06947290  0.99096063    -0.79400
Zn465      Zn  0.53589714  0.01085242  0.99658386     1.55700
O466        O  0.47966270  0.03249747  0.05556738    -0.80800
Cd467      Cd  0.49560789  0.04890121  0.99978385     1.59700
Cd468      Cd  0.48162007  0.99465084  0.97852022     1.59600
O469        O  0.47459700  0.05376810  0.97063757    -0.80800
O470        O  0.50223470  0.01441601  0.00199525    -1.91300
Cd471      Cd  0.49584193  0.00573011  0.03574606     1.59900
O472        O  0.46191574  0.01809975  0.95648446    -0.80800
O473        O  0.52468697  0.98892967  0.05125685    -0.79400
C474        C  0.52697756  0.97955363  0.95211643     0.83100
C475        C  0.54510408  0.06260730  0.98293652     0.82800
O476        O  0.55163312  0.99040498  0.02182344    -0.78400
C477        C  0.47013694  0.05194351  0.04824700     0.83600
O478        O  0.53901323  0.99200792  0.96722309    -0.78500
C479        C  0.46259500  0.04105783  0.95569412     0.83700
C480        C  0.45630064  0.96906072  0.02093486     0.84000
O481        O  0.45810699  0.97171535  0.99801692    -0.80900
C482        C  0.29231357  0.77731831  0.28791272     0.80300
N483        N  0.30275581  0.78816409  0.26868864    -0.78000
C484        C  0.29390065  0.80890389  0.25939198     0.82800
N485        N  0.27402679  0.81885845  0.26963862    -0.77900
C486        C  0.26312407  0.80821697  0.28882973     0.82900
N487        N  0.27255337  0.78758682  0.29789562    -0.79600
N488        N  0.37101605  0.69070508  0.36574621    -0.36500
N489        N  0.34243648  0.65358915  0.34050908    -0.57100
N490        N  0.36619235  0.61739659  0.36916887    -0.36500
N491        N  0.39234233  0.65453526  0.39695081    -0.57100
C492        C  0.35455768  0.70430897  0.35398728     0.27100
C493        C  0.38136410  0.70472522  0.38313688     0.27100
C494        C  0.34845779  0.60410062  0.35860918     0.27100
C495        C  0.37464158  0.60460719  0.38803257     0.27100
C496        C  0.33661999  0.67272505  0.32680754     0.35700
C497        C  0.33454528  0.63383133  0.32836091     0.35700
C498        C  0.40621379  0.67361249  0.40356227     0.35700
C499        C  0.40361511  0.63471613  0.40526572     0.35700
C500        C  0.35464403  0.72732763  0.36388043    -0.21800
C501        C  0.37149060  0.72756722  0.38228061    -0.21800
C502        C  0.34567194  0.58259987  0.37085857    -0.21800
C503        C  0.36217223  0.58294153  0.38948904    -0.21800
C504        C  0.32466666  0.66513610  0.30594611    -0.22800
C505        C  0.32339989  0.64043096  0.30691179    -0.22800
C506        C  0.42624172  0.66589940  0.41647026    -0.22800
C507        C  0.42456166  0.64121386  0.41759284    -0.22800
C508        C  0.34033601  0.69696948  0.33378412    -0.18200
C509        C  0.40040692  0.69790675  0.39889083    -0.18200
C510        C  0.39464112  0.61096563  0.40269263    -0.18200
C511        C  0.33584051  0.61012704  0.33728707    -0.18200
H512        H  0.34381139  0.74248525  0.35833872     0.14700
H513        H  0.37603749  0.74288824  0.39366455     0.14700
H514        H  0.33326609  0.56801819  0.36664197     0.14700
H515        H  0.36496003  0.56865696  0.40240533     0.14700
H516        H  0.31737864  0.67625411  0.29168048     0.13000
H517        H  0.31491900  0.62871158  0.29358063     0.13000
H518        H  0.44053500  0.67689078  0.42428221     0.13000
H519        H  0.43726166  0.62941016  0.42647287     0.13000
H520        H  0.37592595  0.67330132  0.36120101     0.26300
H521        H  0.37341365  0.63339089  0.36284774     0.26300
C522        C  0.48460462  0.97118068  0.28537487     0.80300
N523        N  0.47486415  0.99169446  0.29446009    -0.78000
C524        C  0.45457873  0.00125770  0.28456338     0.82800
N525        N  0.44378012  0.98991166  0.26542699    -0.77900
C526        C  0.45323900  0.96944228  0.25591516     0.82900
N527        N  0.47350877  0.96005815  0.26618540    -0.79600
N528        N  0.56855480  0.89045042  0.36469126    -0.36500
N529        N  0.60399572  0.86231937  0.39110293    -0.57100
N530        N  0.64237008  0.88965424  0.36812392    -0.36500
N531        N  0.60700693  0.92021569  0.34427062    -0.57100
C532        C  0.55418852  0.87906955  0.38075775     0.27100
C533        C  0.55572644  0.90876661  0.35511152     0.27100
C534        C  0.65502230  0.87762169  0.38507894     0.27100
C535        C  0.65659841  0.90785770  0.36058652     0.27100
C536        C  0.58398953  0.84966139  0.39681352     0.35700
C537        C  0.62306614  0.84888536  0.39791782     0.35700
C538        C  0.58813701  0.92871281  0.33127783     0.35700
C539        C  0.62727481  0.92846970  0.33357908     0.35700
C540        C  0.53190944  0.89024729  0.38124474    -0.21800
C541        C  0.53285412  0.90890555  0.36503177    -0.21800
C542        C  0.67758359  0.88820813  0.38821865    -0.21800
C543        C  0.67857312  0.90730711  0.37272924    -0.21800
C544        C  0.59037136  0.82808957  0.40748803    -0.22800
C545        C  0.61517412  0.82759533  0.40817782    -0.22800
C546        C  0.59646345  0.94288801  0.31254466    -0.22800
C547        C  0.62125523  0.94274118  0.31401290    -0.22800
C548        C  0.56013637  0.85813733  0.39406853    -0.18200
C549        C  0.56351360  0.92442947  0.33656053    -0.18200
C550        C  0.65109948  0.92378075  0.34167366    -0.18200
C551        C  0.64737906  0.85654270  0.39682655    -0.18200
H552        H  0.51644596  0.88530166  0.39196453     0.14700
H553        H  0.51828582  0.92111545  0.36089104     0.14700
H554        H  0.69199436  0.88260031  0.40020986     0.14700
H555        H  0.69386361  0.91925468  0.37043203     0.14700
H556        H  0.57841316  0.81431213  0.41433649     0.13000
H557        H  0.62613934  0.81341029  0.41572897     0.13000
H558        H  0.58581026  0.95234969  0.29920154     0.13000
H559        H  0.63343389  0.95204183  0.30202770     0.13000
H560        H  0.58559494  0.88516379  0.35937167     0.26300
H561        H  0.62571053  0.88473719  0.36092023     0.26300
N562        N  0.37255140  0.88691269  0.17126736    -0.36500
N563        N  0.39544457  0.91512987  0.13334032    -0.57100
N564        N  0.36846129  0.88704078  0.09677683    -0.36500
N565        N  0.34302542  0.86153318  0.13482785    -0.57100
C566        C  0.38368783  0.90427303  0.18466714     0.27100
C567        C  0.35567718  0.87651034  0.18540850     0.27100
C568        C  0.37849981  0.90409363  0.08267207     0.27100
C569        C  0.35100017  0.87587797  0.08350741     0.27100
C570        C  0.40899542  0.92269104  0.15249266     0.35700
C571        C  0.40676802  0.92274318  0.11316004     0.35700
C572        C  0.33647310  0.84913229  0.15470031     0.35700
C573        C  0.33482652  0.84880548  0.11545511     0.35700
C574        C  0.37389995  0.90472331  0.20765637    -0.21800
C575        C  0.35631861  0.88719517  0.20814411    -0.21800
C576        C  0.36739665  0.90364360  0.06007649    -0.21800
C577        C  0.35003340  0.88588231  0.06062101    -0.21800
C578        C  0.42885908  0.93548264  0.14442597    -0.22800
C579        C  0.42741558  0.93557498  0.11956254    -0.22800
C580        C  0.32376902  0.82856596  0.14795550    -0.22800
C581        C  0.32279707  0.82830975  0.12310397    -0.22800
C582        C  0.40314931  0.91905749  0.17716554    -0.18200
C583        C  0.34047832  0.85688194  0.17884848    -0.18200
C584        C  0.33668649  0.85616628  0.09103355    -0.18200
C585        C  0.39832033  0.91909389  0.08905805    -0.18200
H586        H  0.37893703  0.91643835  0.22260817     0.14700
H587        H  0.34529049  0.88280159  0.22355774     0.14700
H588        H  0.37149812  0.91482768  0.04468851     0.14700
H589        H  0.33819299  0.88077716  0.04575336     0.14700
H590        H  0.44291912  0.94391085  0.15530153     0.13000
H591        H  0.44011240  0.94414416  0.10756794     0.13000
H592        H  0.31585142  0.81524902  0.15971670     0.13000
H593        H  0.31395155  0.81475491  0.11194835     0.13000
H594        H  0.37713232  0.88156112  0.15393589     0.26300
H595        H  0.37419591  0.88236823  0.11396775     0.26300
C596        C  0.26714968  0.96534182  0.45065664     0.80300
N597        N  0.27765744  0.95609567  0.47086027    -0.78000
C598        C  0.29877716  0.96514651  0.47983474     0.82800
N599        N  0.30933197  0.98388001  0.46829693    -0.77900
C600        C  0.29935958  0.99340693  0.44797974     0.82900
N601        N  0.27829065  0.98392715  0.43925794    -0.79600
C602        C  0.45148799  0.80867116  0.47392465     0.80300
N603        N  0.47099809  0.81942291  0.46361889    -0.78000
C604        C  0.48086057  0.81019865  0.44308367     0.82800
N605        N  0.47077718  0.79018972  0.43280668    -0.77900
C606        C  0.45130630  0.77925026  0.44272709     0.82900
N607        N  0.44190515  0.78856939  0.46334364    -0.79600
N608        N  0.37280016  0.88119189  0.56529705    -0.36500
N609        N  0.34629392  0.90643036  0.60330047    -0.57100
N610        N  0.37068525  0.87716987  0.63881349    -0.36500
N611        N  0.39466658  0.84947280  0.60088895    -0.57100
C612        C  0.35628417  0.89330724  0.55200765     0.27100
C613        C  0.38231077  0.86400234  0.55082431     0.27100
C614        C  0.35397536  0.88796159  0.65270925     0.27100
C615        C  0.37915684  0.85831314  0.65144527     0.27100
C616        C  0.34034959  0.92039333  0.58430388     0.35700
C617        C  0.33983728  0.91857693  0.62347052     0.35700
C618        C  0.40759808  0.84285240  0.58137118     0.35700
C619        C  0.40643032  0.84090124  0.62050865     0.35700
C620        C  0.35537291  0.88372017  0.52877601    -0.21800
C621        C  0.37178840  0.86528067  0.52803068    -0.21800
C622        C  0.35178174  0.87579700  0.67439400    -0.21800
C623        C  0.36770193  0.85708421  0.67361150    -0.21800
C624        C  0.32972706  0.94144179  0.59242930    -0.22800
C625        C  0.32939484  0.94027192  0.61729218    -0.22800
C626        C  0.42741684  0.82952895  0.58859814    -0.22800
C627        C  0.42667050  0.82829493  0.61344542    -0.22800
C628        C  0.34301642  0.91366001  0.55975175    -0.18200
C629        C  0.40126598  0.84815816  0.55713138    -0.18200
C630        C  0.39856762  0.84364049  0.64459074    -0.18200
C631        C  0.34206376  0.90957465  0.64721966    -0.18200
H632        H  0.34419298  0.88955226  0.51380313     0.14700
H633        H  0.37564937  0.85415588  0.51241892     0.14700
H634        H  0.34028887  0.88023118  0.68946427     0.14700
H635        H  0.37085188  0.84434328  0.68799236     0.14700
H636        H  0.32270195  0.95597300  0.58156389     0.13000
H637        H  0.32208435  0.95368619  0.62940425     0.13000
H638        H  0.44100373  0.82158655  0.57718220     0.13000
H639        H  0.43950612  0.81916762  0.62498237     0.13000
H640        H  0.37841526  0.88545340  0.58274812     0.26300
H641        H  0.37741345  0.88343074  0.62258258     0.26300
N642        N  0.37853849  0.08226722  0.36932510    -0.36500
N643        N  0.35346212  0.11623843  0.40049282    -0.57100
N644        N  0.37742332  0.15581006  0.37614947    -0.36500
N645        N  0.40520881  0.12159951  0.34746780    -0.57100
C646        C  0.36934143  0.06726442  0.38610887     0.27100
C647        C  0.39597826  0.07016995  0.35752002     0.27100
C648        C  0.36709336  0.16755693  0.39478070     0.27100
C649        C  0.39484498  0.17039397  0.36750389     0.27100
C650        C  0.34119172  0.09588319  0.40573523     0.35700
C651        C  0.34009160  0.13473100  0.40876725     0.35700
C652        C  0.41176035  0.10358365  0.33238232     0.35700
C653        C  0.41187733  0.14240360  0.33683212     0.35700
C654        C  0.38102117  0.04531372  0.38491330    -0.21800
C655        C  0.39785416  0.04715194  0.36687343    -0.21800
C656        C  0.37796829  0.18992029  0.39792433    -0.21800
C657        C  0.39549860  0.19172316  0.38066430    -0.21800
C658        C  0.32008018  0.10141608  0.41770060    -0.22800
C659        C  0.31931224  0.12606659  0.41950492    -0.22800
C660        C  0.42287853  0.11298889  0.31215827    -0.22800
C661        C  0.42309432  0.13759243  0.31505794    -0.22800
C662        C  0.34960990  0.07236118  0.40127861    -0.18200
C663        C  0.40893077  0.07876626  0.33734545    -0.18200
C664        C  0.40917837  0.16558473  0.34716964    -0.18200
C665        C  0.34723321  0.15919674  0.40813023    -0.18200
H666        H  0.37756568  0.02951180  0.39570682     0.14700
H667        H  0.40990681  0.03304409  0.36109228     0.14700
H668        H  0.37361578  0.20359939  0.41117444     0.14700
H669        H  0.40724578  0.20708668  0.37797818     0.14700
H670        H  0.30671088  0.08898945  0.42453167     0.13000
H671        H  0.30521001  0.13640031  0.42799022     0.13000
H672        H  0.43023998  0.10317558  0.29699401     0.13000
H673        H  0.43064143  0.15046695  0.30257942     0.13000
H674        H  0.37209375  0.09919100  0.36496838     0.26300
H675        H  0.37188379  0.13945047  0.36878871     0.26300
N676        N  0.17908649  0.88486486  0.37334088    -0.36500
N677        N  0.14304850  0.90478237  0.40600363    -0.57100
N678        N  0.10607413  0.87861860  0.37899683    -0.36500
N679        N  0.14205186  0.85615115  0.34865430    -0.57100
C680        C  0.19331366  0.89522854  0.39058951     0.27100
C681        C  0.19285811  0.86911265  0.36085955     0.27100
C682        C  0.09365362  0.88594005  0.39852429     0.27100
C683        C  0.09295278  0.86090669  0.36836373     0.27100
C684        C  0.16206756  0.91873013  0.41250599     0.35700
C685        C  0.12331523  0.91521536  0.41549260     0.35700
C686        C  0.16089935  0.85075253  0.33437367     0.35700
C687        C  0.12197693  0.84827808  0.33693064     0.35700
C688        C  0.21648425  0.88619349  0.38881403    -0.21800
C689        C  0.21614722  0.86960054  0.37024427    -0.21800
C690        C  0.07246714  0.87270533  0.40037542    -0.21800
C691        C  0.07197756  0.85692917  0.38124733    -0.21800
C692        C  0.15444630  0.93788536  0.42664424    -0.22800
C693        C  0.12980564  0.93571713  0.42842797    -0.22800
C694        C  0.15277115  0.83897881  0.31361480    -0.22800
C695        C  0.12805788  0.83746454  0.31522226    -0.22800
C696        C  0.18631323  0.91351273  0.40706235    -0.18200
C697        C  0.18539052  0.85516185  0.34048446    -0.18200
C698        C  0.09843924  0.84954374  0.34632308    -0.18200
C699        C  0.09972607  0.90574725  0.41338320    -0.18200
H700        H  0.23208984  0.89106185  0.39972781     0.14700
H701        H  0.23143914  0.85927995  0.36414734     0.14700
H702        H  0.05855874  0.87459403  0.41384308     0.14700
H703        H  0.05762122  0.84422517  0.37710593     0.14700
H704        H  0.16548576  0.95186916  0.43491606     0.13000
H705        H  0.11807385  0.94768562  0.43829569     0.13000
H706        H  0.16352383  0.83208356  0.29891970     0.13000
H707        H  0.11599621  0.82908584  0.30211271     0.13000
H708        H  0.16137188  0.88935719  0.36943825     0.26300
H709        H  0.12151656  0.88659501  0.37217324     0.26300
O710        O  0.68847955  0.03167185  0.25689943    -0.78400
C711        C  0.69727842  0.97889178  0.19735703     0.82700
O712        O  0.74498785  0.97327023  0.28479140    -0.79500
O713        O  0.77228732  0.98082453  0.19960327    -0.81000
O714        O  0.75168218  0.06449931  0.21116768    -0.80800
O715        O  0.71691923  0.05934525  0.26273820    -0.79400
Zn716      Zn  0.70793441  0.00399185  0.24483855     1.55700
O717        O  0.75852756  0.03440096  0.18535660    -0.80800
Cd718      Cd  0.74426047  0.04608946  0.24214682     1.59700
Cd719      Cd  0.76430670  0.99284621  0.25859197     1.59600
O720        O  0.77406023  0.05261290  0.26222674    -0.80800
O721        O  0.74070443  0.01122059  0.23754426    -1.91300
Cd722      Cd  0.74521918  0.00469182  0.20289054     1.59900
O723        O  0.78729341  0.01757923  0.27646408    -0.80800
O724        O  0.71596492  0.98749795  0.18728104    -0.79400
C725        C  0.72210467  0.97289425  0.28743998     0.83100
C726        C  0.69597449  0.05104627  0.26689180     0.82800
O727        O  0.69198281  0.98446880  0.21898926    -0.78400
C728        C  0.76065878  0.05638847  0.19167795     0.83600
O729        O  0.70797220  0.98357308  0.27309125    -0.78500
C730        C  0.78866232  0.04049769  0.27490577     0.83700
C731        C  0.78643350  0.96921976  0.21329898     0.84000
O732        O  0.78559732  0.97055956  0.23639162    -0.80900
O733        O  0.80533500  0.24690367  0.96418290    -0.78400
C734        C  0.80055451  0.30997513  0.01769840     0.82700
O735        O  0.75129469  0.22651501  0.02535542    -0.79500
O736        O  0.72311608  0.30743005  0.01627449    -0.81000
O737        O  0.73912812  0.29921353  0.93435788    -0.80800
O738        O  0.77993690  0.24995955  0.93306126    -0.79400
Zn739      Zn  0.78908675  0.26308256  0.99214810     1.55700
O740        O  0.74005994  0.32513565  0.96530659    -0.80800
Cd741      Cd  0.75141119  0.26761927  0.94936435     1.59700
Cd742      Cd  0.73285762  0.24966336  0.00268266     1.59600
O743        O  0.72289720  0.24514302  0.94322490    -0.80800
O744        O  0.75627826  0.27083174  0.98470263    -1.91300
Cd745      Cd  0.75141805  0.30478005  0.99358796     1.59900
O746        O  0.71192120  0.22967117  0.97862221    -0.80800
O747        O  0.78000965  0.31868133  0.01259032    -0.79400
C748        C  0.77400768  0.22519479  0.02848532     0.83100
C749        C  0.79918622  0.24158540  0.94251486     0.82800
O750        O  0.80746720  0.28994352  0.00889320    -0.78400
C751        C  0.73376465  0.31943603  0.94384975     0.83600
O752        O  0.78881096  0.23813382  0.01699264    -0.78500
C753        C  0.70979708  0.23126136  0.95573380     0.83700
C754        C  0.70851846  0.29300669  0.02620633     0.84000
O755        O  0.70957795  0.27027388  0.02340574    -0.80900
C756        C  0.29156946  0.27545350  0.80219640     0.80300
N757        N  0.30031386  0.28497137  0.78150640    -0.78000
C758        C  0.28939304  0.30374234  0.77050248     0.82800
N759        N  0.26955687  0.31347869  0.78076243    -0.77900
C760        C  0.26042793  0.30447358  0.80160071     0.82900
N761        N  0.27162181  0.28544521  0.81230134    -0.79600
C762        C  0.48869851  0.31118855  0.95905477     0.80300
N763        N  0.47849663  0.32180247  0.97870385    -0.78000
C764        C  0.45824894  0.31248592  0.98888900     0.82800
N765        N  0.44822386  0.29219952  0.97906610    -0.77900
C766        C  0.45788130  0.28130077  0.95936321     0.82900
N767        N  0.47813298  0.29100296  0.94955439    -0.79600
C768        C  0.44131104  0.45870231  0.76795808     0.80300
N769        N  0.46137832  0.44921393  0.77838081    -0.78000
C770        C  0.47201843  0.45995044  0.79793428     0.82800
N771        N  0.46231460  0.48051938  0.80694641    -0.77900
C772        C  0.44233868  0.49036033  0.79668036     0.82900
N773        N  0.43195219  0.47929319  0.77718071    -0.79600
C774        C  0.25808027  0.45971507  0.96085374     0.80300
N775        N  0.26958151  0.45125746  0.98094508    -0.78000
C776        C  0.29017416  0.46204203  0.98948784     0.82800
N777        N  0.29937669  0.48124980  0.97744057    -0.77900
C778        C  0.28825671  0.48990454  0.95731898     0.82900
N779        N  0.26767395  0.47902640  0.94933742    -0.79600
N780        N  0.36258256  0.57639836  0.87424309    -0.36500
N781        N  0.33975626  0.61311148  0.90465790    -0.57100
N782        N  0.36825598  0.64945995  0.88118296    -0.36500
N783        N  0.39369528  0.61292146  0.85336458    -0.57100
C784        C  0.35133741  0.56242126  0.89068633     0.27100
C785        C  0.37907432  0.56251242  0.86294379     0.27100
C786        C  0.35856094  0.66248480  0.89925239     0.27100
C787        C  0.38715635  0.66219833  0.87293982     0.27100
C788        C  0.32606741  0.59387876  0.91051392     0.35700
C789        C  0.32817660  0.63282758  0.91291466     0.35700
C790        C  0.39955671  0.59423239  0.83892508     0.35700
C791        C  0.40219253  0.63291307  0.84257423     0.35700
C792        C  0.36049069  0.53926759  0.88944689    -0.21800
C793        C  0.37794433  0.53933114  0.87197746    -0.21800
C794        C  0.37147106  0.68371616  0.90261243    -0.21800
C795        C  0.38962337  0.68351591  0.88598049    -0.21800
C796        C  0.30583297  0.60136551  0.92295982    -0.22800
C797        C  0.30710016  0.62610020  0.92434940    -0.22800
C798        C  0.41224350  0.60232438  0.81905723    -0.22800
C799        C  0.41381167  0.62692959  0.82131627    -0.22800
C800        C  0.33248506  0.56962612  0.90625475    -0.18200
C801        C  0.39462149  0.56989709  0.84415822    -0.18200
C802        C  0.40062484  0.65630575  0.85238805    -0.18200
C803        C  0.33723070  0.65661410  0.91140232    -0.18200
H804        H  0.35516824  0.52385009  0.90003855     0.14700
H805        H  0.38865040  0.52402086  0.86660915     0.14700
H806        H  0.36789913  0.69805486  0.91540075     0.14700
H807        H  0.40276950  0.69772421  0.88335697     0.14700
H808        H  0.29172792  0.59015447  0.93037436     0.13000
H809        H  0.29423099  0.63774428  0.93310728     0.13000
H810        H  0.41959299  0.59162413  0.80449598     0.13000
H811        H  0.42271939  0.63899291  0.80892391     0.13000
H812        H  0.35848730  0.59409680  0.87022743     0.26300
H813        H  0.36113732  0.63386616  0.87346932     0.26300
N814        N  0.56825158  0.39193298  0.87594854    -0.36500
N815        N  0.60821675  0.36893354  0.90050661    -0.57100
N816        N  0.64154398  0.39424369  0.86829067    -0.36500
N817        N  0.60185211  0.41988365  0.84616987    -0.57100
C818        C  0.55638124  0.38110312  0.89426840     0.27100
C819        C  0.55305314  0.40798565  0.86578945     0.27100
C820        C  0.65689724  0.38551348  0.88507445     0.27100
C821        C  0.65351595  0.41172012  0.85638605     0.27100
C822        C  0.59001934  0.35588983  0.91006759     0.35700
C823        C  0.62890092  0.35746899  0.90614700     0.35700
C824        C  0.58087604  0.42577179  0.83518453     0.35700
C825        C  0.61971817  0.42687540  0.83123909     0.35700
C826        C  0.53321504  0.39026476  0.89554843    -0.21800
C827        C  0.53116899  0.40727688  0.87771846    -0.21800
C828        C  0.67888175  0.39752618  0.88375947    -0.21800
C829        C  0.67675894  0.41401941  0.86558165    -0.21800
C830        C  0.59923642  0.33620657  0.92223007    -0.22800
C831        C  0.62388713  0.33716262  0.91967562    -0.22800
C832        C  0.58546760  0.43690203  0.81330792    -0.22800
C833        C  0.61011182  0.43763988  0.81084055    -0.22800
C834        C  0.56534614  0.36221585  0.90892786    -0.18200
C835        C  0.55768583  0.42207481  0.84502592    -0.18200
C836        C  0.64458882  0.42457424  0.83639290    -0.18200
C837        C  0.65228402  0.36593317  0.90046728    -0.18200
H838        H  0.51909102  0.38509107  0.90787027     0.14700
H839        H  0.51520366  0.41768737  0.87375130     0.14700
H840        H  0.69493051  0.39453759  0.89459459     0.14700
H841        H  0.69080891  0.42618169  0.85967197     0.14700
H842        H  0.58927756  0.32266249  0.93203084     0.13000
H843        H  0.63666609  0.32451339  0.92713273     0.13000
H844        H  0.57242317  0.44385092  0.80050480     0.13000
H845        H  0.61983534  0.44523888  0.79580117     0.13000
H846        H  0.58520372  0.38759070  0.86966544     0.26300
H847        H  0.62451815  0.38747295  0.86410084     0.26300
N848        N  0.36353620  0.37933649  0.67991490    -0.36500
N849        N  0.38619070  0.40858942  0.64288108    -0.57100
N850        N  0.36025116  0.38044858  0.60626151    -0.36500
N851        N  0.33509088  0.35364386  0.64332792    -0.57100
C852        C  0.37304086  0.39755019  0.69336491     0.27100
C853        C  0.34665730  0.36837118  0.69356253     0.27100
C854        C  0.36986570  0.39807268  0.59266567     0.27100
C855        C  0.34242592  0.37005412  0.59296365     0.27100
C856        C  0.39925507  0.41612009  0.66227927     0.35700
C857        C  0.39823688  0.41587394  0.62307858     0.35700
C858        C  0.32957317  0.34014782  0.66274032     0.35700
C859        C  0.32749592  0.34116228  0.62361509     0.35700
C860        C  0.36210669  0.39809140  0.71581748    -0.21800
C861        C  0.34550619  0.37965720  0.71596109    -0.21800
C862        C  0.35805526  0.39888565  0.57045864    -0.21800
C863        C  0.34069123  0.38121313  0.57066412    -0.21800
C864        C  0.41954386  0.42860495  0.65477846    -0.22800
C865        C  0.41885920  0.42849942  0.62989033    -0.22800
C866        C  0.31812062  0.31905910  0.65538764    -0.22800
C867        C  0.31675119  0.31972827  0.63052605    -0.22800
C868        C  0.39242174  0.41269978  0.68659300    -0.18200
C869        C  0.33332892  0.34752725  0.68697402    -0.18200
C870        C  0.32897381  0.34959644  0.59963032    -0.18200
C871        C  0.39014067  0.41225168  0.59901462    -0.18200
H872        H  0.36585829  0.41037838  0.73067184     0.14700
H873        H  0.33403758  0.37496244  0.73095877     0.14700
H874        H  0.36178025  0.41075250  0.55549583     0.14700
H875        H  0.32848708  0.37679828  0.55587516     0.14700
H876        H  0.43332750  0.43699305  0.66603534     0.13000
H877        H  0.43194419  0.43684942  0.61816197     0.13000
H878        H  0.31126905  0.30483841  0.66675182     0.13000
H879        H  0.30864645  0.30611436  0.61889009     0.13000
H880        H  0.36938635  0.37365307  0.66306703     0.26300
H881        H  0.36672403  0.37470940  0.62287758     0.26300
N882        N  0.37772012  0.39127692  0.07533120    -0.36500
N883        N  0.40436535  0.36495531  0.11216660    -0.57100
N884        N  0.37892653  0.39156602  0.14999877    -0.36500
N885        N  0.34985138  0.41533956  0.11294422    -0.57100
C886        C  0.38850493  0.37438603  0.06143700     0.27100
C887        C  0.35984621  0.40113072  0.06189375     0.27100
C888        C  0.39044502  0.37505634  0.16361204     0.27100
C889        C  0.36179808  0.40157988  0.16400183     0.27100
C890        C  0.41602394  0.35662222  0.09247598     0.35700
C891        C  0.41648092  0.35670928  0.13170805     0.35700
C892        C  0.34127613  0.42729710  0.09349158     0.35700
C893        C  0.34167810  0.42701900  0.13273623     0.35700
C894        C  0.37756103  0.37376637  0.03878968    -0.21800
C895        C  0.35942856  0.39049726  0.03912023    -0.21800
C896        C  0.38096490  0.37508080  0.18674946    -0.21800
C897        C  0.36284895  0.39173282  0.18696373    -0.21800
C898        C  0.43547276  0.34271384  0.09954347    -0.22800
C899        C  0.43574140  0.34273118  0.12438181    -0.22800
C900        C  0.32743242  0.44659609  0.10098032    -0.22800
C901        C  0.32760038  0.44635552  0.12583120    -0.22800
C902        C  0.40845812  0.36002831  0.06823016    -0.18200
C903        C  0.34458767  0.42022691  0.06909203    -0.18200
C904        C  0.34549245  0.41968832  0.15693543    -0.18200
C905        C  0.40956379  0.36020318  0.15605241    -0.18200
H906        H  0.38211015  0.36240741  0.02355656     0.14700
H907        H  0.34740610  0.39450388  0.02417117     0.14700
H908        H  0.38640015  0.36414922  0.20194931     0.14700
H909        H  0.35169105  0.39602909  0.20232886     0.14700
H910        H  0.44790410  0.33317272  0.08802126     0.13000
H911        H  0.44846722  0.33323950  0.13573732     0.13000
H912        H  0.31797750  0.45937297  0.08972730     0.13000
H913        H  0.31834105  0.45891806  0.13748988     0.13000
H914        H  0.38307760  0.39671422  0.09250690     0.26300
H915        H  0.38304633  0.39625870  0.13245093     0.26300
N916        N  0.37793281  0.19315391  0.87951670    -0.36500
N917        N  0.41046373  0.15752014  0.89955758    -0.57100
N918        N  0.38463459  0.12032842  0.87167638    -0.36500
N919        N  0.35444581  0.15582890  0.84905666    -0.57100
C920        C  0.39450166  0.20764239  0.89062345     0.27100
C921        C  0.36504947  0.20688277  0.86399399     0.27100
C922        C  0.40401472  0.10816173  0.87969646     0.27100
C923        C  0.37487372  0.10722658  0.85337943     0.27100
C924        C  0.41665541  0.17638886  0.91391488     0.35700
C925        C  0.41947556  0.13765221  0.91018366     0.35700
C926        C  0.33981181  0.17454666  0.84415606     0.35700
C927        C  0.34316296  0.13572569  0.84058632     0.35700
C928        C  0.39187231  0.23094875  0.88226340    -0.21800
C929        C  0.37338200  0.23046970  0.86546827    -0.21800
C930        C  0.40674476  0.08718422  0.86630023    -0.21800
C931        C  0.38829774  0.08659030  0.84963890    -0.21800
C932        C  0.43011240  0.16852909  0.93354812    -0.22800
C933        C  0.43180324  0.14391806  0.93123993    -0.22800
C934        C  0.31928840  0.16631613  0.83203969    -0.22800
C935        C  0.32138964  0.14169745  0.82985949    -0.22800
C936        C  0.41125953  0.20068682  0.90883226    -0.18200
C937        C  0.34525846  0.19905644  0.84933182    -0.18200
C938        C  0.35300223  0.11229400  0.84145330    -0.18200
C939        C  0.41773568  0.11415069  0.90037202    -0.18200
H940        H  0.40215395  0.24672016  0.88774837     0.14700
H941        H  0.36670890  0.24583936  0.85559625     0.14700
H942        H  0.42029131  0.07344921  0.86869738     0.14700
H943        H  0.38485108  0.07232388  0.83661403     0.14700
H944        H  0.43790228  0.17939479  0.94797931     0.13000
H945        H  0.44125286  0.13204636  0.94347297     0.13000
H946        H  0.30436647  0.17695225  0.82543229     0.13000
H947        H  0.30853278  0.12962953  0.82117150     0.13000
H948        H  0.37469854  0.17516387  0.88317976     0.26300
H949        H  0.37730308  0.13548947  0.87973709     0.26300
N950        N  0.17148769  0.38321330  0.87828636    -0.36500
N951        N  0.13330964  0.40524435  0.90721708    -0.57100
N952        N  0.09734141  0.37815359  0.87882730    -0.36500
N953        N  0.13551267  0.35484190  0.85122818    -0.57100
C954        C  0.18489542  0.39380591  0.89608126     0.27100
C955        C  0.18597111  0.36753397  0.86650884     0.27100
C956        C  0.08232331  0.39069244  0.89323934     0.27100
C957        C  0.08353454  0.36388358  0.86432341     0.27100
C958        C  0.15244998  0.41718314  0.91692191     0.35700
C959        C  0.11320247  0.41563847  0.91606248     0.35700
C960        C  0.15534936  0.34771393  0.83923063     0.35700
C961        C  0.11627929  0.34560246  0.83910982     0.35700
C962        C  0.20829145  0.38516963  0.89511487    -0.21800
C963        C  0.20894289  0.36863154  0.87657143     0.29400
C964        C  0.05865773  0.38402364  0.88800693    -0.21800
C965        C  0.05943175  0.36712447  0.86985568    -0.21800
C966        C  0.14447286  0.43510587  0.93239404    -0.22800
C967        C  0.11966197  0.43416110  0.93181698    -0.22800
C968        C  0.14872922  0.33369151  0.81940915    -0.22800
C969        C  0.12400630  0.33228634  0.81936968    -0.22800
C970        C  0.17700796  0.41163372  0.91271558    -0.18200
C971        C  0.17939851  0.35257685  0.84656985    -0.18200
C972        C  0.09180161  0.34881628  0.84545091    -0.18200
C973        C  0.08907087  0.40879131  0.91021817    -0.18200
H974        H  0.22343611  0.39016592  0.90660824     0.14700
H975        H  0.22462477  0.35850163  0.87117886     0.14700
H976        H  0.04237760  0.39091808  0.89607836     0.14700
H977        H  0.04389243  0.35861490  0.86133875     0.14700
H978        H  0.15537794  0.44756296  0.94300784     0.13000
H979        H  0.10774414  0.44582357  0.94182868     0.13000
H980        H  0.16048171  0.32520744  0.80642478     0.13000
H981        H  0.11299233  0.32260467  0.80623702     0.13000
H982        H  0.15397728  0.38720894  0.87379120     0.26300
H983        H  0.11560040  0.37974479  0.87842732     0.26300
C984        C  0.69101046  0.73370184  0.20124032     0.80300
N985        N  0.71183684  0.72414941  0.19299011    -0.78000
C986        C  0.72220957  0.70506372  0.20409529     0.82800
N987        N  0.71122741  0.69531889  0.22368500    -0.77900
C988        C  0.69037949  0.70471702  0.23234338     0.82900
N989        N  0.68045482  0.72389519  0.22093784    -0.79600
N990        N  0.60654266  0.62817008  0.31690708    -0.36500
N991        N  0.63235750  0.65524423  0.35411268    -0.57100
N992        N  0.60424591  0.63026238  0.39106242    -0.36500
N993        N  0.58115989  0.60057129  0.35416104    -0.57100
C994        C  0.62355003  0.63911398  0.30331931     0.27100
C995        C  0.59635240  0.61048267  0.30326338     0.27100
C996        C  0.62079132  0.64177164  0.40500414     0.27100
C997        C  0.59397909  0.61322761  0.40497822     0.27100
C998        C  0.64084862  0.66700573  0.33464137     0.35700
C999        C  0.63941156  0.66812038  0.37373994     0.35700
C1000       C  0.56934293  0.59214777  0.33436281     0.35700
C1001       C  0.56846220  0.59316112  0.37353238     0.35700
C1002       C  0.62392350  0.62845420  0.28058980    -0.21800
C1003       C  0.60687571  0.61035978  0.28057736    -0.21800
C1004       C  0.62065327  0.63226339  0.42816184    -0.21800
C1005       C  0.60384511  0.61418616  0.42809395    -0.21800
C1006       C  0.65369927  0.68730982  0.34195203    -0.22800
C1007       C  0.65281884  0.68799456  0.36676542    -0.22800
C1008       C  0.54915213  0.57907646  0.34125288    -0.22800
C1009       C  0.54867227  0.57964449  0.36608331    -0.22800
C1010       C  0.63812171  0.65905391  0.31044211    -0.18200
C1011       C  0.57702155  0.59518951  0.31021095    -0.18200
C1012       C  0.57521744  0.59745405  0.39787452    -0.18200
C1013       C  0.63531308  0.66132908  0.39790603    -0.18200
H1014       H  0.63526650  0.63323534  0.26552321     0.14700
H1015       H  0.60262317  0.59854825  0.26546832     0.14700
H1016       H  0.63143189  0.63776841  0.44366622     0.14700
H1017       H  0.59932845  0.60311442  0.44344559     0.14700
H1018       H  0.66291700  0.70015951  0.33061993     0.13000
H1019       H  0.66129938  0.70142320  0.37835166     0.13000
H1020       H  0.53611628  0.57000808  0.32963714     0.13000
H1021       H  0.53534284  0.57106615  0.37736810     0.13000
H1022       H  0.60121384  0.63325311  0.33405629     0.26300
H1023       H  0.59941362  0.63467198  0.37353353     0.26300
C1024       C  0.70013632  0.54863539  0.00804274     0.80300
N1025       N  0.68982512  0.52922727  0.01878251    -0.78000
C1026       C  0.69869504  0.52058923  0.04001424     0.82800
N1027       N  0.71814384  0.53162813  0.05036077    -0.77900
C1028       C  0.72870959  0.55106338  0.04003483     0.82900
N1029       N  0.71945632  0.55943434  0.01895119    -0.79600
C1030       C  0.51255191  0.69894291  0.04081650     0.80300
N1031       N  0.52340846  0.68773249  0.02199388    -0.78000
C1032       C  0.54390910  0.69666312  0.01230369     0.82800
N1033       N  0.55356654  0.71733587  0.02153246    -0.77900
C1034       C  0.54311285  0.72886299  0.04043606     0.82900
N1035       N  0.52257499  0.71950607  0.04993001    -0.79600
C1036       C  0.53761247  0.51313456  0.19985493     0.80300
N1037       N  0.54498924  0.52318672  0.22113328    -0.78000
C1038       C  0.53311409  0.54222624  0.23072990     0.82800
N1039       N  0.51386441  0.55139545  0.21861893    -0.77900
C1040       C  0.50610077  0.54152644  0.19736962     0.82900
N1041       N  0.51813576  0.52239054  0.18819607    -0.79600
N1042       N  0.42281942  0.61985505  0.11391725    -0.36500
N1043       N  0.38569544  0.58848723  0.13360265    -0.57100
N1044       N  0.34980311  0.61526661  0.10604554    -0.36500
N1045       N  0.38671951  0.64431894  0.08393883    -0.57100
C1046       C  0.43670363  0.60388866  0.12599468     0.27100
C1047       C  0.43738149  0.63226679  0.09890209     0.27100
C1048       C  0.33654613  0.59641893  0.11366642     0.27100
C1049       C  0.33691092  0.62614406  0.08848164     0.27100
C1050       C  0.40421381  0.58220973  0.14823293     0.35700
C1051       C  0.36542750  0.57972988  0.14374879     0.35700
C1052       C  0.40619992  0.65790966  0.07871737     0.35700
C1053       C  0.36720097  0.65657892  0.07615868     0.35700
C1054       C  0.46049669  0.60656818  0.11894830    -0.21800
C1055       C  0.46091690  0.62436755  0.10184468    -0.21800
C1056       C  0.31502985  0.59516893  0.10072865    -0.21800
C1057       C  0.31522833  0.61402127  0.08483349    -0.21800
C1058       C  0.39574041  0.56878512  0.16745041    -0.22800
C1059       C  0.37109910  0.56733451  0.16467732    -0.22800
C1060       C  0.39907021  0.67869881  0.06697366    -0.22800
C1061       C  0.37428711  0.67795659  0.06556350    -0.22800
C1062       C  0.42872507  0.58773025  0.14399291    -0.18200
C1063       C  0.43034692  0.65131136  0.08346180    -0.18200
C1064       C  0.34323969  0.64798037  0.07739117    -0.18200
C1065       C  0.34195990  0.58238752  0.13403683    -0.18200
H1066       H  0.47605458  0.59686242  0.12553535     0.14700
H1067       H  0.47687811  0.63092660  0.09283798     0.14700
H1068       H  0.30036604  0.58247623  0.10308851     0.14700
H1069       H  0.30077420  0.61862629  0.07245761     0.14700
H1070       H  0.40618723  0.56100112  0.18202246     0.13000
H1071       H  0.35879210  0.55815500  0.17662690     0.13000
H1072       H  0.41051080  0.69294953  0.06021976     0.13000
H1073       H  0.36283946  0.69137804  0.05734279     0.13000
H1074       H  0.40478138  0.62286754  0.11658567     0.26300
H1075       H  0.36546261  0.62171150  0.11402401     0.26300
N1076       N  0.62025699  0.43303860  0.11860017    -0.36500
N1077       N  0.64519294  0.39760313  0.08931079    -0.57100
N1078       N  0.62073393  0.35952772  0.11515936    -0.36500
N1079       N  0.59352117  0.39479792  0.14231718    -0.57100
C1080       C  0.62968257  0.44706569  0.10112892     0.27100
C1081       C  0.60235476  0.44561034  0.12913437     0.27100
C1082       C  0.63047888  0.34698866  0.09677063     0.27100
C1083       C  0.60331571  0.34553784  0.12459686     0.27100
C1084       C  0.65790256  0.41744198  0.08338864     0.35700
C1085       C  0.65820372  0.37858901  0.08181282     0.35700
C1086       C  0.58675598  0.41361584  0.15613678     0.35700
C1087       C  0.58716878  0.37473261  0.15436913     0.35700
C1088       C  0.61778696  0.46892240  0.10068138    -0.21800
C1089       C  0.60049809  0.46799471  0.11835509    -0.21800
C1090       C  0.61925990  0.32470717  0.09454830    -0.21800
C1091       C  0.60204581  0.32378499  0.11216247    -0.21800
C1092       C  0.67900085  0.41105152  0.07182154    -0.22800
C1093       C  0.67919258  0.38633991  0.07082521    -0.22800
C1094       C  0.57580717  0.40549296  0.17701917    -0.22800
C1095       C  0.57599235  0.38076444  0.17584528    -0.22800
C1096       C  0.64966220  0.44115985  0.08662549    -0.18200
C1097       C  0.58861512  0.43790218  0.14909528    -0.18200
C1098       C  0.58983052  0.35116449  0.14524400    -0.18200
C1099       C  0.65039935  0.35446895  0.08317979    -0.18200
H1100       H  0.62129123  0.48401738  0.08893229     0.14700
H1101       H  0.58807349  0.48223818  0.12286210     0.14700
H1102       H  0.62332351  0.31045259  0.08182461     0.14700
H1103       H  0.59021690  0.30865915  0.11565476     0.14700
H1104       H  0.69262518  0.42294747  0.06457394     0.13000
H1105       H  0.69300151  0.37535146  0.06267894     0.13000
H1106       H  0.56810302  0.41625924  0.19134120     0.13000
H1107       H  0.56850239  0.36863261  0.18907656     0.13000
H1108       H  0.62670249  0.41643407  0.12406796     0.26300
H1109       H  0.62680375  0.37593435  0.12200009     0.26300
N1110       N  0.62219796  0.62335311  0.92113905    -0.36500
N1111       N  0.65244110  0.60438152  0.88269801    -0.57100
N1112       N  0.62148965  0.62792275  0.84714446    -0.36500
N1113       N  0.59361691  0.64951721  0.88583805    -0.57100
C1114       C  0.64074703  0.61420645  0.93407455     0.27100
C1115       C  0.61060475  0.63899325  0.93574158     0.27100
C1116       C  0.64003289  0.62096987  0.83312828     0.27100
C1117       C  0.60919057  0.64481636  0.83472222     0.27100
C1118       C  0.66135395  0.59152009  0.90135189     0.35700
C1119       C  0.66144468  0.59448802  0.86235140     0.35700
C1120       C  0.58082871  0.65465864  0.90585290     0.35700
C1121       C  0.58017420  0.65663526  0.86674414     0.35700
C1122       C  0.64074779  0.62385030  0.95726556    -0.21800
C1123       C  0.62184152  0.63961573  0.95826951    -0.21800
C1124       C  0.63932672  0.63330276  0.81142965    -0.21800
C1125       C  0.61994442  0.64845334  0.81248213    -0.21800
C1126       C  0.67653152  0.57371317  0.89288735    -0.22800
C1127       C  0.67658748  0.57559135  0.86811809    -0.22800
C1128       C  0.55916137  0.66528164  0.89950812    -0.22800
C1129       C  0.55870930  0.66648068  0.87468697    -0.22800
C1130       C  0.65696231  0.59648474  0.92596748    -0.18200
C1131       C  0.58951626  0.65191278  0.92976344    -0.18200
C1132       C  0.58808277  0.65651580  0.84249226    -0.18200
C1133       C  0.65684812  0.60286605  0.83871944    -0.18200
H1134       H  0.65311887  0.61998741  0.97196417     0.14700
H1135       H  0.61686113  0.65020671  0.97391659     0.14700
H1136       H  0.65153984  0.63157983  0.79637872     0.14700
H1137       H  0.61440235  0.66070665  0.79838873     0.14700
H1138       H  0.68665182  0.56086631  0.90346142     0.13000
H1139       H  0.68668600  0.56440791  0.85578467     0.13000
H1140       H  0.54538542  0.67192151  0.91152000     0.13000
H1141       H  0.54448680  0.67424233  0.86376963     0.13000
H1142       H  0.61698164  0.61811186  0.90383235     0.26300
H1143       H  0.61675875  0.62058540  0.86362611     0.26300
N1144       N  0.81115601  0.62885494  0.12715774    -0.36500
N1145       N  0.84753282  0.65755675  0.15257810    -0.57100
N1146       N  0.88480315  0.63387971  0.12455928    -0.36500
N1147       N  0.84850329  0.60752925  0.09696423    -0.57100
C1148       C  0.79704578  0.64478252  0.13893536     0.27100
C1149       C  0.79759387  0.61869549  0.10931420     0.27100
C1150       C  0.89765978  0.65189146  0.13502027     0.27100
C1151       C  0.89806365  0.62542962  0.10605907     0.27100
C1152       C  0.82822618  0.66353475  0.16599205     0.35700
C1153       C  0.86718501  0.66610508  0.16452317     0.35700
C1154       C  0.82942736  0.59417754  0.08945930     0.35700
C1155       C  0.86836964  0.59642099  0.08861289     0.35700
C1156       C  0.77411586  0.64445553  0.12866968    -0.21800
C1157       C  0.77446363  0.62801177  0.10999108    -0.21800
C1158       C  0.91940230  0.65479608  0.12314759    -0.21800
C1159       C  0.91961844  0.63812213  0.10479557    -0.21800
C1160       C  0.83560102  0.67630931  0.18640012    -0.22800
C1161       C  0.86032806  0.67794318  0.18546489    -0.22800
C1162       C  0.83717589  0.57462916  0.07595313    -0.22800
C1163       C  0.86192705  0.57600529  0.07550570    -0.22800
C1164       C  0.80397861  0.65901032  0.15921550    -0.18200
C1165       C  0.80510522  0.60033622  0.09326180    -0.18200
C1166       C  0.89205912  0.60546535  0.09137051    -0.18200
C1167       C  0.89104148  0.66474408  0.15591906    -0.18200
H1168       H  0.75868688  0.65495820  0.13407500     0.14700
H1169       H  0.75933278  0.62337433  0.09832026     0.14700
H1170       H  0.93377962  0.66743643  0.12738442     0.14700
H1171       H  0.93417644  0.63539765  0.09219428     0.14700
H1172       H  0.82432493  0.68390388  0.20033308     0.13000
H1173       H  0.87189292  0.68710553  0.19849547     0.13000
H1174       H  0.82614634  0.56093533  0.06718108     0.13000
H1175       H  0.87378417  0.56363153  0.06631342     0.13000
H1176       H  0.82865681  0.62423014  0.13183132     0.26300
H1177       H  0.86874041  0.62665355  0.13075950     0.26300
N1178       N  0.61575516  0.81969608  0.11970748    -0.36500
N1179       N  0.63920727  0.85666359  0.14941668    -0.57100
N1180       N  0.61754272  0.89294301  0.11861676    -0.36500
N1181       N  0.59146501  0.85613757  0.09116585    -0.57100
C1182       C  0.62462647  0.80643211  0.13811777     0.27100
C1183       C  0.59875815  0.80616888  0.10822811     0.27100
C1184       C  0.62621069  0.90665982  0.13700142     0.27100
C1185       C  0.60149644  0.90647335  0.10640760     0.27100
C1186       C  0.65141481  0.83729466  0.15731574     0.35700
C1187       C  0.65177080  0.87615720  0.15715450     0.35700
C1188       C  0.58428820  0.83647761  0.07850369     0.35700
C1189       C  0.58584921  0.87540594  0.07756046     0.35700
C1190       C  0.61327518  0.78413670  0.13827498    -0.21800
C1191       C  0.59693360  0.78396967  0.11943432    -0.21800
C1192       C  0.61571759  0.92921607  0.13640488    -0.21800
C1193       C  0.60008441  0.92910900  0.11709487    -0.21800
C1194       C  0.67161191  0.84449844  0.17052423    -0.22800
C1195       C  0.67179193  0.86922313  0.17048033    -0.22800
C1196       C  0.57371548  0.84327434  0.05680550    -0.22800
C1197       C  0.57471531  0.86802731  0.05620711    -0.22800
C1198       C  0.64380173  0.81327260  0.15376759    -0.18200
C1199       C  0.58595166  0.81264640  0.08701334    -0.18200
C1200       C  0.58906326  0.89952130  0.08510668    -0.18200
C1201       C  0.64476501  0.90009108  0.15309524    -0.18200
H1202       H  0.61659387  0.76941923  0.15055833     0.14700
H1203       H  0.58524227  0.76905197  0.11439661     0.14700
H1204       H  0.61921114  0.94431136  0.14843387     0.14700
H1205       H  0.58914982  0.94415047  0.11143092     0.14700
H1206       H  0.68471892  0.83313236  0.17939188     0.13000
H1207       H  0.68507135  0.88076330  0.17925568     0.13000
H1208       H  0.56588524  0.83164229  0.04301130     0.13000
H1209       H  0.56777336  0.87930717  0.04189830     0.13000
H1210       H  0.62215963  0.83635292  0.11431581     0.26300
H1211       H  0.62348900  0.87598003  0.11366837     0.26300
O1212       O  0.72550664  0.48601989  0.68255271    -0.78400
C1213       C  0.77206108  0.55180315  0.68498022     0.82700
O1214       O  0.78591885  0.46701785  0.73908594    -0.79500
O1215       O  0.78427336  0.54687555  0.75600757    -0.81000
O1216       O  0.69575043  0.54183144  0.74758987    -0.80800
O1217       O  0.69361864  0.49533609  0.70476631    -0.79400
Zn1218     Zn  0.75356016  0.50224965  0.69908330     1.55700
O1219       O  0.72917039  0.56246777  0.75587489    -0.80800
Cd1220     Cd  0.71008993  0.51016706  0.73473106     1.59700
Cd1221     Cd  0.76216463  0.49100957  0.75661265     1.59600
O1222       O  0.70182005  0.48729763  0.76188095    -0.80800
O1223       O  0.74541773  0.51101244  0.73128293    -1.91300
Cd1224     Cd  0.75430621  0.54483317  0.73545322     1.59900
O1225       O  0.73614364  0.47258703  0.77708285    -0.80800
O1226       O  0.76404469  0.56153620  0.70416039    -0.79400
C1227       C  0.79000808  0.46538955  0.71638907     0.83100
C1228       C  0.70306526  0.48432665  0.68696459     0.82800
O1229       O  0.76870057  0.52950757  0.68052499    -0.78400
C1230       C  0.70674004  0.55883903  0.75877878     0.83600
O1231       O  0.77884199  0.47794668  0.70092593    -0.78500
C1232       C  0.71313738  0.47424887  0.77684830     0.83700
C1233       C  0.78986825  0.53568371  0.77510372     0.84000
O1234       O  0.78164365  0.51464977  0.77970150    -0.80900
O1235       O  0.94037623  0.02072824  0.46839903    -0.78400
C1236       C  0.94308555  0.95558483  0.51942758     0.82700
O1237       O  0.98421641  0.04510229  0.53406222    -0.79500
O1238       O  0.01795813  0.96961856  0.53546198    -0.81000
O1239       O  0.01088955  0.96964031  0.44843964    -0.80800
O1240       O  0.96632272  0.01144962  0.43951700    -0.79400
Zn1241     Zn  0.95379201  0.00415545  0.49791056     1.55700
O1242       O  0.01480082  0.94771266  0.48169993    -0.80800
Cd1243     Cd  0.99453906  0.99999380  0.46039410     1.59700
Cd1244     Cd  0.00742323  0.02460800  0.51292491     1.59600
O1245       O  0.01952689  0.02569846  0.45430548    -0.80800
O1246       O  0.98763666  0.99935673  0.49510670    -1.91300
Cd1247     Cd  0.99516898  0.96686864  0.50672119     1.59900
O1248       O  0.02622960  0.04648864  0.48838418    -0.80800
O1249       O  0.96509487  0.94928347  0.51892769    -0.79400
C1250       C  0.96148509  0.04242142  0.53645312     0.83100
C1251       C  0.94778682  0.02260088  0.44675201     0.82800
O1252       O  0.93578342  0.97492755  0.50955692    -0.78400
C1253       C  0.01966533  0.95178695  0.45963464     0.83600
O1254       O  0.94929380  0.02724777  0.52418056    -0.78500
C1255       C  0.02957035  0.04286938  0.46581645     0.83700
C1256       C  0.03263002  0.98562645  0.54309278     0.84000
O1257       O  0.03226629  0.00736803  0.53572521    -0.80900
C1258       C  0.53629613  0.05093380  0.73741994     0.80300
N1259       N  0.54664798  0.03093040  0.72798676    -0.78000
C1260       C  0.53837830  0.02072714  0.70709479     0.82800
N1261       N  0.51930395  0.03098980  0.69548421    -0.77900
C1262       C  0.50862492  0.05110248  0.70452506     0.82900
N1263       N  0.51733820  0.06089519  0.72549376    -0.79600
C1264       C  0.72430944  0.04599369  0.54484262     0.80300
N1265       N  0.71465063  0.02661473  0.55625939    -0.78000
C1266       C  0.69410242  0.01589138  0.54771365     0.82800
N1267       N  0.68312193  0.02494001  0.52770082    -0.77900
C1268       C  0.69247922  0.04419453  0.51596126     0.82900
N1269       N  0.71300886  0.05463319  0.52480277    -0.79600
C1270       C  0.53700025  0.23535257  0.54280134     0.80300
N1271       N  0.51658059  0.22582165  0.55218534    -0.78000
C1272       C  0.50631170  0.20570247  0.54252661     0.82800
N1273       N  0.51698052  0.19484479  0.52337641    -0.77900
C1274       C  0.53753184  0.20398776  0.51376469     0.82900
N1275       N  0.54741333  0.22427913  0.52363345    -0.79600
N1276       N  0.61260151  0.12081248  0.42813057    -0.36500
N1277       N  0.58864880  0.14922893  0.39097046    -0.57100
N1278       N  0.61627284  0.12360745  0.35448171    -0.36500
N1279       N  0.63795244  0.09311472  0.39135469    -0.57100
C1280       C  0.59691286  0.13311108  0.44207868     0.27100
C1281       C  0.62385642  0.10461590  0.44241497     0.27100
C1282       C  0.60037502  0.13556920  0.34045845     0.27100
C1283       C  0.62549537  0.10586314  0.34063852     0.27100
C1284       C  0.58008997  0.16080702  0.41057713     0.35700
C1285       C  0.58272272  0.16264350  0.37159317     0.35700
C1286       C  0.64936389  0.08442457  0.41108957     0.35700
C1287       C  0.65002839  0.08490783  0.37191465     0.35700
C1288       C  0.59823268  0.12458173  0.46556647    -0.21800
C1289       C  0.61527185  0.10674648  0.46580543    -0.21800
C1290       C  0.59975075  0.12552165  0.31742169    -0.21800
C1291       C  0.61563203  0.10681741  0.31752642    -0.21800
C1292       C  0.56821773  0.18155498  0.40355750    -0.22800
C1293       C  0.57002138  0.18279072  0.37882171    -0.22800
C1294       C  0.66848457  0.07007940  0.40408432    -0.22800
C1295       C  0.66889707  0.07039390  0.37922888    -0.22800
C1296       C  0.58241691  0.15272004  0.43467389    -0.18200
C1297       C  0.64255625  0.08883633  0.43532162    -0.18200
C1298       C  0.64376428  0.08981456  0.34766649    -0.18200
C1299       C  0.58714726  0.15598945  0.34739327    -0.18200
H1300       H  0.58831063  0.13086819  0.48111077     0.14700
H1301       H  0.62089647  0.09672545  0.48156762     0.14700
H1302       H  0.58905235  0.13113720  0.30201596     0.14700
H1303       H  0.61956424  0.09533311  0.30220524     0.14700
H1304       H  0.55921456  0.19445327  0.41504406     0.13000
H1305       H  0.56251318  0.19667633  0.36743031     0.13000
H1306       H  0.68086263  0.06040745  0.41566295     0.13000
H1307       H  0.68157685  0.06100250  0.36785558     0.13000
H1308       H  0.61628749  0.12403383  0.41042223     0.26300
H1309       H  0.62161755  0.12824961  0.37175358     0.26300
N1310       N  0.42165833  0.12847185  0.62282229    -0.36500
N1311       N  0.38406406  0.15785654  0.60013796    -0.57100
N1312       N  0.34830831  0.13338929  0.62891566    -0.36500
N1313       N  0.38599155  0.10674907  0.65408258    -0.57100
C1314       C  0.43519233  0.14475559  0.61087380     0.27100
C1315       C  0.43616798  0.11788898  0.63941817     0.27100
C1316       C  0.33500262  0.15134053  0.61952498     0.27100
C1317       C  0.33596715  0.12458788  0.64781180     0.27100
C1318       C  0.40278115  0.16382247  0.58592773     0.35700
C1319       C  0.36395918  0.16596759  0.58894705     0.35700
C1320       C  0.40515291  0.09303119  0.65996195     0.35700
C1321       C  0.36633161  0.09532431  0.66264738     0.35700
C1322       C  0.45869971  0.14421170  0.61970056    -0.21800
C1323       C  0.45930330  0.12728431  0.63770184    -0.21800
C1324       C  0.31390070  0.15390752  0.63252590    -0.21800
C1325       C  0.31456262  0.13704441  0.65049481    -0.21800
C1326       C  0.39458187  0.17619115  0.56578934    -0.22800
C1327       C  0.36991783  0.17750209  0.56768784    -0.22800
C1328       C  0.39770216  0.07291800  0.67260703    -0.22800
C1329       C  0.37304036  0.07431445  0.67422713    -0.22800
C1330       C  0.42725355  0.15942547  0.59155828    -0.18200
C1331       C  0.42937849  0.09931005  0.65541359    -0.18200
C1332       C  0.34264656  0.10447693  0.66154995    -0.18200
C1333       C  0.34049079  0.16414075  0.59841430    -0.18200
H1334       H  0.47389615  0.15490090  0.61378235     0.14700
H1335       H  0.47503077  0.12242427  0.64828406     0.14700
H1336       H  0.29937358  0.16640555  0.62923346     0.14700
H1337       H  0.30067401  0.13402309  0.66377312     0.14700
H1338       H  0.40526732  0.18359094  0.55131565     0.13000
H1339       H  0.35780325  0.18615826  0.55504354     0.13000
H1340       H  0.40888663  0.05883063  0.68001403     0.13000
H1341       H  0.36142496  0.06149975  0.68316692     0.13000
H1342       H  0.40384357  0.12403732  0.61898861     0.26300
H1343       H  0.36395898  0.12629801  0.62173709     0.26300
C1344       C  0.69470199  0.20555043  0.72438544     0.80300
N1345       N  0.68570149  0.22620202  0.71495923    -0.78000
C1346       C  0.69702383  0.23789167  0.69675807     0.82800
N1347       N  0.71770751  0.22845753  0.68784906    -0.77900
C1348       C  0.72726373  0.20792121  0.69709116     0.82900
N1349       N  0.71555577  0.19658041  0.71535015    -0.79600
N1350       N  0.61580328  0.32380759  0.62195479    -0.36500
N1351       N  0.58777134  0.35922106  0.59427385    -0.57100
N1352       N  0.61566395  0.39724316  0.61662790    -0.36500
N1353       N  0.64599396  0.36174934  0.64174917    -0.57100
C1354       C  0.60442285  0.30939868  0.60562693     0.27100
C1355       C  0.63379854  0.31083134  0.63206894     0.27100
C1356       C  0.60328284  0.40976324  0.59975706     0.27100
C1357       C  0.63455738  0.41108901  0.62369393     0.27100
C1358       C  0.57504748  0.33908469  0.58891695     0.35700
C1359       C  0.57403882  0.37801597  0.58734614     0.35700
C1360       C  0.65406852  0.34346065  0.65560551     0.35700
C1361       C  0.65474028  0.38227085  0.65178602     0.35700
C1362       C  0.61519212  0.28691486  0.60554431    -0.21800
C1363       C  0.63363594  0.28779219  0.62230959    -0.21800
C1364       C  0.61433116  0.43186768  0.59617784    -0.21800
C1365       C  0.63401739  0.43275288  0.61132642    -0.21800
C1366       C  0.55314534  0.34507396  0.57830769    -0.22800
C1367       C  0.55248555  0.36980228  0.57737004    -0.22800
C1368       C  0.66835601  0.35235444  0.67434107    -0.22800
C1369       C  0.66884767  0.37697684  0.67188263    -0.22800
C1370       C  0.58368287  0.31541376  0.59186230    -0.18200
C1371       C  0.64962779  0.31882092  0.65070939    -0.18200
C1372       C  0.65103900  0.40561125  0.64243150    -0.18200
C1373       C  0.58164472  0.40231560  0.58831834    -0.18200
H1374       H  0.61007607  0.27133761  0.59476838     0.14700
H1375       H  0.64552851  0.27309958  0.62684976     0.14700
H1376       H  0.60867232  0.44603776  0.58409568     0.14700
H1377       H  0.64627404  0.44788231  0.61318935     0.14700
H1378       H  0.53921382  0.33288767  0.57173821     0.13000
H1379       H  0.53800982  0.38048784  0.56989081     0.13000
H1380       H  0.67758393  0.34216881  0.68819223     0.13000
H1381       H  0.67854335  0.38952761  0.68351171     0.13000
H1382       H  0.61064325  0.34102204  0.62693003     0.26300
H1383       H  0.61066360  0.38094180  0.62413886     0.26300
N1384       N  0.61820093  0.93233245  0.63365021    -0.36500
N1385       N  0.64237624  0.89557430  0.60527890    -0.57100
N1386       N  0.61579917  0.85871347  0.63147418    -0.36500
N1387       N  0.59425685  0.89540927  0.66222924    -0.57100
C1388       C  0.63490409  0.94582724  0.62219849     0.27100
C1389       C  0.60945252  0.94576056  0.65201678     0.27100
C1390       C  0.63191980  0.84505935  0.61957083     0.27100
C1391       C  0.60659191  0.84497823  0.64922516     0.27100
C1392       C  0.64870503  0.91516178  0.59240266     0.35700
C1393       C  0.64763374  0.87616587  0.59150783     0.35700
C1394       C  0.58247644  0.91500568  0.67044610     0.35700
C1395       C  0.58143702  0.87598296  0.66937352     0.35700
C1396       C  0.63682339  0.96814588  0.63346742    -0.21800
C1397       C  0.62067945  0.96814223  0.65221632    -0.21800
C1398       C  0.63268939  0.82228378  0.62968072    -0.21800
C1399       C  0.61688503  0.82231336  0.64853496    -0.21800
C1400       C  0.65831674  0.90815327  0.57042529    -0.22800
C1401       C  0.65771623  0.88340683  0.56989892    -0.22800
C1402       C  0.56231203  0.90800220  0.68330144    -0.22800
C1403       C  0.56161772  0.88325961  0.68257007    -0.22800
C1404       C  0.64709329  0.93919291  0.60080196    -0.18200
C1405       C  0.59021913  0.93907546  0.66725330    -0.18200
C1406       C  0.58809163  0.85177434  0.66510518    -0.18200
C1407       C  0.64480836  0.85203759  0.59889629    -0.18200
H1408       H  0.64827539  0.98308328  0.62836987     0.14700
H1409       H  0.61732729  0.98306647  0.66437013     0.14700
H1410       H  0.64334565  0.80706413  0.62399225     0.14700
H1411       H  0.61317984  0.80720231  0.66020069     0.14700
H1412       H  0.66518332  0.91965515  0.55632182     0.13000
H1413       H  0.66406545  0.87205591  0.55534569     0.13000
H1414       H  0.54948163  0.91950434  0.69230179     0.13000
H1415       H  0.54811495  0.87192884  0.69085296     0.13000
H1416       H  0.61177611  0.91561944  0.62811772     0.26300
H1417       H  0.61025629  0.87584049  0.62677496     0.26300
N1418       N  0.81310343  0.13207907  0.61757071    -0.36500
N1419       N  0.84847277  0.10266991  0.59272807    -0.57100
N1420       N  0.88701414  0.12871013  0.61835633    -0.36500
N1421       N  0.85174056  0.15552991  0.64594629    -0.57100
C1422       C  0.79841675  0.11560300  0.60666984     0.27100
C1423       C  0.80007719  0.14349696  0.63469420     0.27100
C1424       C  0.89971971  0.11089157  0.60793833     0.27100
C1425       C  0.90146489  0.13887466  0.63538863     0.27100
C1426       C  0.82862181  0.09556941  0.58018925     0.35700
C1427       C  0.86763547  0.09394059  0.58070309     0.35700
C1428       C  0.83287938  0.16826996  0.65430318     0.35700
C1429       C  0.87194118  0.16670442  0.65425849     0.35700
C1430       C  0.77566911  0.11685000  0.61677831    -0.21800
C1431       C  0.77668133  0.13446871  0.63433460    -0.21800
C1432       C  0.92257660  0.10987587  0.61830773    -0.21800
C1433       C  0.92371071  0.12760650  0.63556398    -0.21800
C1434       C  0.83520707  0.08199329  0.56021196    -0.22800
C1435       C  0.85995081  0.08097403  0.56053602    -0.22800
C1436       C  0.84113563  0.18735501  0.66847336    -0.22800
C1437       C  0.86591144  0.18638473  0.66839920    -0.22800
C1438       C  0.80461164  0.10000791  0.58728136    -0.18200
C1439       C  0.80830582  0.16241936  0.65012361    -0.18200
C1440       C  0.89571486  0.15882871  0.64999709    -0.18200
C1441       C  0.89187994  0.09628424  0.58846769    -0.18200
H1442       H  0.75990011  0.10620073  0.61199612     0.14700
H1443       H  0.76182246  0.13993604  0.64561337     0.14700
H1444       H  0.93706461  0.09774253  0.61378901     0.14700
H1445       H  0.93923025  0.13174616  0.64689763     0.14700
H1446       H  0.82342269  0.07354853  0.54689660     0.13000
H1447       H  0.87100613  0.07152043  0.54759889     0.13000
H1448       H  0.83042816  0.20054322  0.67795345     0.13000
H1449       H  0.87807617  0.19862264  0.67782687     0.13000
H1450       H  0.83065749  0.13614572  0.61285054     0.26300
H1451       H  0.87007421  0.13452128  0.61314100     0.26300
N1452       N  0.61643328  0.13266896  0.81802721    -0.36500
N1453       N  0.59105783  0.11129594  0.85865650    -0.57100
N1454       N  0.61913661  0.14158614  0.89146576    -0.36500
N1455       N  0.64196595  0.16534861  0.85072353    -0.57100
C1456       C  0.59854053  0.12059194  0.80629884     0.27100
C1457       C  0.62598575  0.14841941  0.80216795     0.27100
C1458       C  0.60246901  0.13254151  0.90661196     0.27100
C1459       C  0.62881252  0.16123633  0.90238637     0.27100
C1460       C  0.58292488  0.09658110  0.84080418     0.35700
C1461       C  0.58512470  0.10074565  0.87972559     0.35700
C1462       C  0.65388518  0.17038160  0.83017527     0.35700
C1463       C  0.65496607  0.17531253  0.86900570     0.35700
C1464       C  0.59694075  0.12859730  0.78261850    -0.21800
C1465       C  0.61423857  0.14616274  0.78003569    -0.21800
C1466       C  0.60165168  0.14654657  0.92745150    -0.21800
C1467       C  0.61821473  0.16475029  0.92471491    -0.21800
C1468       C  0.57138380  0.07673946  0.85053714    -0.22800
C1469       C  0.57279975  0.07936815  0.87525552    -0.22800
C1470       C  0.67437048  0.18395537  0.83535352    -0.22800
C1471       C  0.67510788  0.18701816  0.86000890    -0.22800
C1472       C  0.58456239  0.10158043  0.81588111    -0.18200
C1473       C  0.64576285  0.16398653  0.80672289    -0.18200
C1474       C  0.64813097  0.17507536  0.89353515    -0.18200
C1475       C  0.58923432  0.11108049  0.90281364    -0.18200
H1476       H  0.58471178  0.12233860  0.76853109     0.14700
H1477       H  0.61782042  0.15608253  0.76366860     0.14700
H1478       H  0.59048187  0.14388120  0.94314377     0.14700
H1479       H  0.62224350  0.17879868  0.93782266     0.14700
H1480       H  0.56268002  0.06203938  0.84084373     0.13000
H1481       H  0.56531078  0.06714589  0.88840455     0.13000
H1482       H  0.68732951  0.19103289  0.82269000     0.13000
H1483       H  0.68878819  0.19691320  0.87009910     0.13000
H1484       H  0.62272521  0.12935194  0.83537968     0.26300
H1485       H  0.62484629  0.13378345  0.87543843     0.26300
C1486       C  0.01253617  0.72398234  0.53348055     0.80300
N1487       N  0.02225041  0.74394796  0.54417225    -0.78000
C1488       C  0.04213241  0.75494564  0.53496153     0.82800
N1489       N  0.05250208  0.74539365  0.51484175    -0.77900
C1490       C  0.04317342  0.72528352  0.50398217     0.82900
N1491       N  0.02320999  0.71490974  0.51345073    -0.79600
N1492       N  0.12527102  0.64717119  0.41930907    -0.36500
N1493       N  0.10287854  0.67688256  0.38230219    -0.57100
N1494       N  0.12989557  0.65085689  0.34581052    -0.36500
N1495       N  0.15506938  0.62368565  0.38272824    -0.57100
C1496       C  0.11412200  0.66368829  0.43334974     0.27100
C1497       C  0.14108142  0.63520333  0.43353175     0.27100
C1498       C  0.12052044  0.66881636  0.33253316     0.27100
C1499       C  0.14797411  0.64131029  0.33284138     0.27100
C1500       C  0.08954943  0.68385078  0.40136397     0.35700
C1501       C  0.09138044  0.68485787  0.36230954     0.35700
C1502       C  0.16038674  0.60967067  0.40185559     0.35700
C1503       C  0.16271666  0.61177670  0.36287924     0.35700
C1504       C  0.12274243  0.66193775  0.45689566    -0.21800
C1505       C  0.13971706  0.64398550  0.45701322    -0.21800
C1506       C  0.13274238  0.67075979  0.31088009    -0.21800
C1507       C  0.15016894  0.65336159  0.31109319    -0.21800
C1508       C  0.06973746  0.69683223  0.39348602    -0.22800
C1509       C  0.07083719  0.69736974  0.36867646    -0.22800
C1510       C  0.17195580  0.58896797  0.39416768    -0.22800
C1511       C  0.17337220  0.59028216  0.36941538    -0.22800
C1512       C  0.09562283  0.67956912  0.42582107    -0.18200
C1513       C  0.15582861  0.61576422  0.42623195    -0.18200
C1514       C  0.16089352  0.62055080  0.33905422    -0.18200
C1515       C  0.09991554  0.68204035  0.33850746    -0.18200
H1516       H  0.11727518  0.67241566  0.47244795     0.14700
H1517       H  0.14983212  0.63800686  0.47266725     0.14700
H1518       H  0.12917973  0.68314850  0.29627894     0.14700
H1519       H  0.16268182  0.64963236  0.29666530     0.14700
H1520       H  0.05597141  0.70508343  0.40446083     0.13000
H1521       H  0.05817915  0.70623408  0.35673414     0.13000
H1522       H  0.17868365  0.57445242  0.40524119     0.13000
H1523       H  0.18142995  0.57703442  0.35761083     0.13000
H1524       H  0.12143113  0.64335415  0.40136500     0.26300
H1525       H  0.12295237  0.64414917  0.36173498     0.26300
C1526       C  0.22751695  0.71555658  0.69471963     0.80300
N1527       N  0.21724307  0.70521233  0.71433011    -0.78000
C1528       C  0.19739045  0.71486322  0.72472783     0.82800
N1529       N  0.18760916  0.73502822  0.71503779    -0.77900
C1530       C  0.19739193  0.74557402  0.69524795     0.82900
N1531       N  0.21738055  0.73567197  0.68516097    -0.79600
C1532       C  0.19485260  0.52878082  0.53381657     0.80300
N1533       N  0.21586994  0.53712857  0.54372403    -0.78000
C1534       C  0.22732859  0.55667368  0.53443433     0.82800
N1535       N  0.21733151  0.56783247  0.51502462    -0.77900
C1536       C  0.19640185  0.55975337  0.50476042     0.82900
N1537       N  0.18540302  0.54016209  0.51428036    -0.79600
N1538       N  0.31350605  0.63291307  0.61695334    -0.36500
N1539       N  0.35119923  0.60276330  0.59619368    -0.57100
N1540       N  0.38723714  0.62903925  0.62470182    -0.36500
N1541       N  0.34930393  0.65690378  0.64781970    -0.57100
C1542       C  0.29997497  0.61577914  0.60561965     0.27100
C1543       C  0.29897953  0.64475381  0.63253467     0.27100
C1544       C  0.40042658  0.61043627  0.61638664     0.27100
C1545       C  0.39942331  0.63863089  0.64376202     0.27100
C1546       C  0.33245267  0.59565975  0.58200692     0.35700
C1547       C  0.37137287  0.59412869  0.58580562     0.35700
C1548       C  0.33004270  0.67081724  0.65284781     0.35700
C1549       C  0.36891817  0.66845209  0.65705100     0.35700
C1550       C  0.27646253  0.61699336  0.61388247    -0.21800
C1551       C  0.27586067  0.63517804  0.63087876    -0.21800
C1552       C  0.42124271  0.60820806  0.63024555    -0.21800
C1553       C  0.42061470  0.62603532  0.64754978    -0.21800
C1554       C  0.34072028  0.58208617  0.56269808    -0.22800
C1555       C  0.36540586  0.58120759  0.56504809    -0.22800
C1556       C  0.33746666  0.69118478  0.66557983    -0.22800
C1557       C  0.36207372  0.68965260  0.66828654    -0.22800
C1558       C  0.30789920  0.59989996  0.58715381    -0.18200
C1559       C  0.30571323  0.66468560  0.64740721    -0.18200
C1560       C  0.39268386  0.65932544  0.65687903    -0.18200
C1561       C  0.39487773  0.59628440  0.59580664    -0.18200
H1562       H  0.26122089  0.60601082  0.60820293     0.14700
H1563       H  0.26010988  0.64079486  0.64078432     0.14700
H1564       H  0.43546698  0.59515818  0.62803447     0.14700
H1565       H  0.43429133  0.62943163  0.66126872     0.14700
H1566       H  0.33007499  0.57349276  0.54854491     0.13000
H1567       H  0.37751870  0.57177065  0.55310108     0.13000
H1568       H  0.32630908  0.70556015  0.67241400     0.13000
H1569       H  0.37357429  0.70252686  0.67769231     0.13000
H1570       H  0.33131924  0.63715444  0.61328983     0.26300
H1571       H  0.37166776  0.63580966  0.61681306     0.26300
C1572       C  0.03675335  0.55090075  0.71962784     0.80300
N1573       N  0.04643980  0.53067058  0.71008785    -0.78000
C1574       C  0.03748742  0.52077269  0.68941698     0.82800
N1575       N  0.01869730  0.53148759  0.67795283    -0.77900
C1576       C  0.00881879  0.55190990  0.68702283     0.82900
N1577       N  0.01802990  0.56150426  0.70789087    -0.79600
N1578       N  0.11573269  0.43906728  0.60741198    -0.36500
N1579       N  0.08800738  0.40147659  0.63112407    -0.57100
N1580       N  0.10780501  0.36716003  0.59802176    -0.36500
N1581       N  0.13345787  0.40445422  0.57206618    -0.57100
C1582       C  0.10000540  0.45214115  0.62053315     0.27100
C1583       C  0.12452658  0.45365973  0.59008743     0.27100
C1584       C  0.09013335  0.35400180  0.60818651     0.27100
C1585       C  0.11416349  0.35562043  0.57761657     0.27100
C1586       C  0.08486858  0.41960020  0.64701715     0.35700
C1587       C  0.08168222  0.38108151  0.64256587     0.35700
C1588       C  0.14781512  0.42342575  0.56700781     0.35700
C1589       C  0.14426001  0.38479948  0.56275663     0.35700
C1590       C  0.09893947  0.47535651  0.61153139    -0.21800
C1591       C  0.11449890  0.47633287  0.59236056    -0.21800
C1592       C  0.08495416  0.33398710  0.59390751    -0.21800
C1593       C  0.10022134  0.33501313  0.57451430    -0.21800
C1594       C  0.07619457  0.41079389  0.66867519    -0.22800
C1595       C  0.07426884  0.38622797  0.66587776    -0.22800
C1596       C  0.16753552  0.41593390  0.55379003    -0.22800
C1597       C  0.16536366  0.39131702  0.55124006    -0.22800
C1598       C  0.08761899  0.44405725  0.64121277    -0.18200
C1599       C  0.14253102  0.44746285  0.57331397    -0.18200
C1600       C  0.13467897  0.36126698  0.56408188    -0.18200
C1601       C  0.08075891  0.35830393  0.63130979    -0.18200
H1602       H  0.08825164  0.49015486  0.61822372     0.14700
H1603       H  0.11810786  0.49198433  0.58139685     0.14700
H1604       H  0.07215873  0.31970503  0.59751966     0.14700
H1605       H  0.10163566  0.32165622  0.56027114     0.14700
H1606       H  0.07148032  0.42103970  0.68463733     0.13000
H1607       H  0.06767122  0.37369817  0.67921187     0.13000
H1608       H  0.18197815  0.42702305  0.54684557     0.13000
H1609       H  0.17772346  0.37961210  0.54184472     0.13000
H1610       H  0.12130287  0.42163894  0.61098135     0.26300
H1611       H  0.11691117  0.38166216  0.60587011     0.26300
N1612       N  0.92780571  0.63570205  0.60615112    -0.36500
N1613       N  0.88975550  0.60838584  0.63061498    -0.57100
N1614       N  0.85387395  0.63190799  0.60073085    -0.36500
N1615       N  0.89165271  0.66178285  0.57885042    -0.57100
C1616       C  0.94096038  0.62464057  0.62346124     0.27100
C1617       C  0.94181857  0.65315551  0.59649141     0.27100
C1618       C  0.83942289  0.62097698  0.61692189     0.27100
C1619       C  0.84049085  0.64874241  0.58952408     0.27100
C1620       C  0.90916810  0.59698165  0.63980722     0.35700
C1621       C  0.87015623  0.59564747  0.63747327     0.35700
C1622       C  0.91147466  0.67109485  0.56835161     0.35700
C1623       C  0.87262048  0.66886468  0.56538000     0.35700
C1624       C  0.96379186  0.63499115  0.62461681    -0.21800
C1625       C  0.96432940  0.65295695  0.60762060    -0.21800
C1626       C  0.81646938  0.63065265  0.61561859    -0.21800
C1627       C  0.81714009  0.64818328  0.59836136    -0.21800
C1628       C  0.90180765  0.57707818  0.65291202    -0.22800
C1629       C  0.87707764  0.57630542  0.65151321    -0.22800
C1630       C  0.90495644  0.68447842  0.54828045    -0.22800
C1631       C  0.88029061  0.68304073  0.54638730    -0.22800
C1632       C  0.93338605  0.60483287  0.63760308    -0.18200
C1633       C  0.93528565  0.66856219  0.57721060    -0.18200
C1634       C  0.84831649  0.66403495  0.57086544    -0.18200
C1635       C  0.84604012  0.60201499  0.63238041    -0.18200
H1636       H  0.97859121  0.63007181  0.63644911     0.14700
H1637       H  0.97962826  0.66447099  0.60381904     0.14700
H1638       H  0.80081040  0.62565633  0.62602809     0.14700
H1639       H  0.80206540  0.65925884  0.59296242     0.14700
H1640       H  0.91305278  0.56455791  0.66271148     0.13000
H1641       H  0.86551713  0.56311715  0.65997848     0.13000
H1642       H  0.91671218  0.69436408  0.53633993     0.13000
H1643       H  0.86924524  0.69164209  0.53275765     0.13000
H1644       H  0.91067068  0.63071233  0.60047054     0.26300
H1645       H  0.87147483  0.62742655  0.59665362     0.26300
N1646       N  0.12152494  0.83748805  0.61817767    -0.36500
N1647       N  0.15056049  0.87216441  0.64562165    -0.57100
N1648       N  0.12337540  0.91137753  0.62338290    -0.36500
N1649       N  0.09678730  0.87674737  0.59337609    -0.57100
C1650       C  0.13795132  0.82266367  0.62839729     0.27100
C1651       C  0.11044885  0.82515067  0.59998683     0.27100
C1652       C  0.14152419  0.92389842  0.63414817     0.27100
C1653       C  0.11256689  0.92630585  0.60751032     0.27100
C1654       C  0.15739023  0.85189491  0.65714363     0.35700
C1655       C  0.15915230  0.89087702  0.65894337     0.35700
C1656       C  0.08429095  0.85797679  0.58375035     0.35700
C1657       C  0.08455404  0.89686706  0.58749236     0.35700
C1658       C  0.13709641  0.80050550  0.61672902    -0.21800
C1659       C  0.11977738  0.80206007  0.59885079    -0.21800
C1660       C  0.14208317  0.94715459  0.62519863    -0.21800
C1661       C  0.12375691  0.94869250  0.60842814    -0.21800
C1662       C  0.17067798  0.85776661  0.67772935    -0.22800
C1663       C  0.17186852  0.88246115  0.67882199    -0.22800
C1664       C  0.06420719  0.86623704  0.57129425    -0.22800
C1665       C  0.06432067  0.89087530  0.57374099    -0.22800
C1666       C  0.15304591  0.82816702  0.64857402    -0.18200
C1667       C  0.09129543  0.83358164  0.58516897    -0.18200
C1668       C  0.09230642  0.92064956  0.59287834    -0.18200
C1669       C  0.15675553  0.91542731  0.65278165    -0.18200
H1670       H  0.14779936  0.78478332  0.62071501     0.14700
H1671       H  0.11456470  0.78770817  0.58650784     0.14700
H1672       H  0.15432084  0.96159998  0.63033613     0.14700
H1673       H  0.11919764  0.96452305  0.59809652     0.14700
H1674       H  0.17888770  0.84554116  0.69048648     0.13000
H1675       H  0.18114326  0.89301316  0.69260311     0.13000
H1676       H  0.05094335  0.85564014  0.56136094     0.13000
H1677       H  0.05123371  0.90301306  0.56595348     0.13000
H1678       H  0.11719130  0.85461234  0.62415664     0.26300
H1679       H  0.11779728  0.89407782  0.62761702     0.26300
N1680       N  0.11767504  0.63033070  0.80619249    -0.36500
N1681       N  0.08951506  0.60492087  0.84249498    -0.57100
N1682       N  0.11330520  0.63318734  0.87979257    -0.36500
N1683       N  0.13925091  0.66078355  0.84379937    -0.57100
C1684       C  0.10091698  0.61912162  0.79205791     0.27100
C1685       C  0.12822430  0.64764903  0.79272573     0.27100
C1686       C  0.09540860  0.62267396  0.89233843     0.27100
C1687       C  0.12098703  0.65230506  0.89296987     0.27100
C1688       C  0.08348948  0.59159687  0.82288509     0.35700
C1689       C  0.08249869  0.59222543  0.86194608     0.35700
C1690       C  0.15336181  0.66702935  0.82506033     0.35700
C1691       C  0.15060699  0.66871960  0.86410452     0.35700
C1692       C  0.10104350  0.62924984  0.76920077    -0.21800
C1693       C  0.11826093  0.64723528  0.76962376    -0.21800
C1694       C  0.09165551  0.63526925  0.91370328    -0.21800
C1695       C  0.10780777  0.65404900  0.91406692    -0.21800
C1696       C  0.07227682  0.57039513  0.82987032    -0.22800
C1697       C  0.07173095  0.57076553  0.85472665    -0.22800
C1698       C  0.17366690  0.67928132  0.83349172    -0.22800
C1699       C  0.17190168  0.68035697  0.85828985    -0.22800
C1700       C  0.08644503  0.59917855  0.79881033    -0.18200
C1701       C  0.14735251  0.66305334  0.80042416    -0.18200
C1702       C  0.14116468  0.66665749  0.88761589    -0.18200
C1703       C  0.08373407  0.60098774  0.88587261    -0.18200
H1704       H  0.08999553  0.62411150  0.75374583     0.14700
H1705       H  0.12296279  0.65865406  0.75458826     0.14700
H1706       H  0.07892696  0.63116020  0.92781217     0.14700
H1707       H  0.10998064  0.66717156  0.92848629     0.14700
H1708       H  0.06501163  0.55629642  0.81827115     0.13000
H1709       H  0.06383003  0.55713071  0.86613201     0.13000
H1710       H  0.18817070  0.68674016  0.82287884     0.13000
H1711       H  0.18469464  0.68885177  0.87060106     0.13000
H1712       H  0.12259700  0.62557711  0.82363994     0.26300
H1713       H  0.12120135  0.62651708  0.86420332     0.26300
C1714       C  0.79626659  0.27687893  0.30096876     0.80300
N1715       N  0.77735057  0.28826945  0.31141571    -0.78000
C1716       C  0.76823494  0.30880350  0.30185724     0.82800
N1717       N  0.77822639  0.31785647  0.28144591    -0.77900
C1718       C  0.79711115  0.30681605  0.27056552     0.82900
N1719       N  0.80599455  0.28633366  0.28054650    -0.79600
N1720       N  0.67592274  0.38789424  0.37502420    -0.36500
N1721       N  0.64209965  0.36216371  0.34355727    -0.57100
N1722       N  0.60241122  0.38695782  0.36731622    -0.36500
N1723       N  0.63627731  0.41510595  0.39636489    -0.57100
C1724       C  0.69139765  0.37706164  0.35968518     0.27100
C1725       C  0.68836611  0.40536862  0.38697319     0.27100
C1726       C  0.59071767  0.37667794  0.34834121     0.27100
C1727       C  0.58759771  0.40378380  0.37659859     0.27100
C1728       C  0.66226386  0.34978391  0.33820658     0.35700
C1729       C  0.62337201  0.34963840  0.33388107     0.35700
C1730       C  0.65455018  0.42338531  0.41049561     0.35700
C1731       C  0.61562013  0.42209474  0.40701084     0.35700
C1732       C  0.71404356  0.38754897  0.36217293    -0.21800
C1733       C  0.71216413  0.40532707  0.37939304    -0.21800
C1734       C  0.56818274  0.38705935  0.34555757    -0.21800
C1735       C  0.56616235  0.40408475  0.36349032    -0.21800
C1736       C  0.65637836  0.32945773  0.32468151    -0.22800
C1737       C  0.63170260  0.32932748  0.32198812    -0.22800
C1738       C  0.64547669  0.43619971  0.42994702    -0.22800
C1739       C  0.62076780  0.43529071  0.42778819    -0.22800
C1740       C  0.68600067  0.35737851  0.34412519    -0.18200
C1741       C  0.67930256  0.42049397  0.40547055    -0.18200
C1742       C  0.59225320  0.41778639  0.39750000    -0.18200
C1743       C  0.59901501  0.35702275  0.33453039    -0.18200
H1744       H  0.73032003  0.38282771  0.35265105     0.14700
H1745       H  0.72680709  0.41678455  0.38567909     0.14700
H1746       H  0.55444937  0.38257538  0.33220001     0.14700
H1747       H  0.55058576  0.41526806  0.36661856     0.14700
H1748       H  0.66859492  0.31622417  0.31736877     0.13000
H1749       H  0.62114986  0.31596192  0.31217347     0.13000
H1750       H  0.65559063  0.44532879  0.44415178     0.13000
H1751       H  0.60806924  0.44362238  0.43994283     0.13000
H1752       H  0.65824127  0.38282568  0.37811009     0.26300
H1753       H  0.61877935  0.38159147  0.37458198     0.26300
C1754       C  0.76121826  0.46031882  0.45730238     0.80300
N1755       N  0.77247229  0.48010443  0.44838153    -0.78000
C1756       C  0.79416875  0.48765437  0.45726741     0.82800
N1757       N  0.80474210  0.47492587  0.47536775    -0.77900
C1758       C  0.79391769  0.45496635  0.48452322     0.82900
N1759       N  0.77220090  0.44783623  0.47530343    -0.79600
C1760       C  0.95105783  0.46363486  0.27302828     0.80300
N1761       N  0.97026097  0.45226954  0.28312623    -0.78000
C1762       C  0.98098178  0.46076692  0.30370778     0.82800
N1763       N  0.97211056  0.48101943  0.31427551    -0.77900
C1764       C  0.95308404  0.49287643  0.30433480     0.82900
N1765       N  0.94260656  0.48393047  0.28380167    -0.79600
C1766       C  0.98686666  0.29696799  0.45721777     0.80300
N1767       N  0.97609062  0.30630213  0.47717325    -0.78000
C1768       C  0.95599236  0.29587834  0.48649349     0.82800
N1769       N  0.94657718  0.27598139  0.47542043    -0.77900
C1770       C  0.95698101  0.26618161  0.45551061     0.82900
N1771       N  0.97714745  0.27689140  0.44654375    -0.79600
N1772       N  0.07021396  0.37917258  0.37918363    -0.36500
N1773       N  0.10497027  0.40503775  0.34887244    -0.57100
N1774       N  0.14390709  0.37835585  0.37126227    -0.36500
N1775       N  0.10893801  0.35015384  0.39904778    -0.57100
C1776       C  0.05526342  0.39031224  0.36338749     0.27100
C1777       C  0.05739090  0.36135244  0.38981984     0.27100
C1778       C  0.15619135  0.38978108  0.35370190     0.27100
C1779       C  0.15832888  0.36087379  0.37987287     0.27100
C1780       C  0.08496114  0.41781203  0.34370299     0.35700
C1781       C  0.12383199  0.41752479  0.33985488     0.35700
C1782       C  0.09073975  0.34214855  0.41307687     0.35700
C1783       C  0.12966291  0.34197033  0.40898107     0.35700
C1784       C  0.03259410  0.37968474  0.36425637    -0.21800
C1785       C  0.03395100  0.36140808  0.38084341    -0.21800
C1786       C  0.17877094  0.37953628  0.35122601    -0.21800
C1787       C  0.18013737  0.36130011  0.36776587    -0.21800
C1788       C  0.09108861  0.43834439  0.33097671    -0.22800
C1789       C  0.11572711  0.43815776  0.32853866    -0.22800
C1790       C  0.09992303  0.32852346  0.43187778    -0.22800
C1791       C  0.12457336  0.32835241  0.42925128    -0.22800
C1792       C  0.06111792  0.41046444  0.34894473    -0.18200
C1793       C  0.06588487  0.34561933  0.40809897    -0.18200
C1794       C  0.15299312  0.34544687  0.39928546    -0.18200
C1795       C  0.14814655  0.40998221  0.34069037    -0.18200
H1796       H  0.01667959  0.38455875  0.35397204     0.14700
H1797       H  0.01929277  0.34949540  0.38572573     0.14700
H1798       H  0.19290727  0.38479392  0.33893945     0.14700
H1799       H  0.19557684  0.34983716  0.37070020     0.14700
H1800       H  0.07904477  0.45193715  0.32399875     0.13000
H1801       H  0.12642004  0.45156799  0.31933004     0.13000
H1802       H  0.08989436  0.31938541  0.44581406     0.13000
H1803       H  0.13727436  0.31907624  0.44081827     0.13000
H1804       H  0.08775343  0.38433876  0.38337113     0.26300
H1805       H  0.12726600  0.38309079  0.37803276     0.26300
N1806       N  0.87081909  0.37197833  0.57025913    -0.36500
N1807       N  0.89901325  0.34863862  0.60789413    -0.57100
N1808       N  0.87272488  0.37593699  0.64462833    -0.36500
N1809       N  0.84720466  0.40185723  0.60705457    -0.57100
C1810       C  0.88761314  0.36079924  0.55661668     0.27100
C1811       C  0.85982852  0.38844454  0.55609568     0.27100
C1812       C  0.88984777  0.36554072  0.65842294     0.27100
C1813       C  0.86318622  0.39390767  0.65794306     0.27100
C1814       C  0.90660041  0.33562772  0.58871162     0.35700
C1815       C  0.90659588  0.33699287  0.62790530     0.35700
C1816       C  0.83471703  0.40913256  0.58735233     0.35700
C1817       C  0.83606407  0.41132825  0.62655282     0.35700
C1818       C  0.88692711  0.36999806  0.53337527    -0.21800
C1819       C  0.86937554  0.38732127  0.53301581    -0.21800
C1820       C  0.89100985  0.37682487  0.68087783    -0.21800
C1821       C  0.87420453  0.39476006  0.68055090    -0.21800
C1822       C  0.91935038  0.31574634  0.59657122    -0.22800
C1823       C  0.91932685  0.31659492  0.62142000    -0.22800
C1824       C  0.81571938  0.42363128  0.59435664    -0.22800
C1825       C  0.81657571  0.42501219  0.61919132    -0.22800
C1826       C  0.90311401  0.34203945  0.56421646    -0.18200
C1827       C  0.84107198  0.40417803  0.56308388    -0.18200
C1828       C  0.84401155  0.40883739  0.65081051    -0.18200
C1829       C  0.90359085  0.34534486  0.65189387    -0.18200
H1830       H  0.89796530  0.36482069  0.51819661     0.14700
H1831       H  0.86436602  0.39801337  0.51749788     0.14700
H1832       H  0.90262094  0.37250667  0.69605590     0.14700
H1833       H  0.87042197  0.40692130  0.69538340     0.14700
H1834       H  0.92783657  0.30210305  0.58555889     0.13000
H1835       H  0.92791529  0.30380878  0.63334548     0.13000
H1836       H  0.80275831  0.43251802  0.58276755     0.13000
H1837       H  0.80444120  0.43516604  0.63050895     0.13000
H1838       H  0.86636283  0.36799012  0.58791649     0.26300
H1839       H  0.86697533  0.37010698  0.62769945     0.26300
N1840       N  0.87313712  0.38631463  0.18270839    -0.36500
N1841       N  0.90087529  0.41255147  0.14611422    -0.57100
N1842       N  0.87562689  0.38547292  0.10881304    -0.36500
N1843       N  0.85038539  0.35672948  0.14522125    -0.57100
C1844       C  0.88952550  0.39794887  0.19694380     0.27100
C1845       C  0.86229785  0.36928606  0.19638654     0.27100
C1846       C  0.89273247  0.39655782  0.09557526     0.27100
C1847       C  0.86692184  0.36704755  0.09525883     0.27100
C1848       C  0.90805217  0.42504207  0.16598085     0.35700
C1849       C  0.90841738  0.42515753  0.12671498     0.35700
C1850       C  0.83720548  0.34928908  0.16424702     0.35700
C1851       C  0.83884236  0.34877083  0.12503598     0.35700
C1852       C  0.88886183  0.38833545  0.22003237    -0.21800
C1853       C  0.87168977  0.37036762  0.21969351    -0.21800
C1854       C  0.89479910  0.38512331  0.07333759    -0.21800
C1855       C  0.87862268  0.36640955  0.07319311    -0.21800
C1856       C  0.92062343  0.44553054  0.15915942    -0.22800
C1857       C  0.92078527  0.44563320  0.13426241    -0.22800
C1858       C  0.81737498  0.33612525  0.15611782    -0.22800
C1859       C  0.81836154  0.33588183  0.13123286    -0.22800
C1860       C  0.90439426  0.41767339  0.19016499    -0.18200
C1861       C  0.84339715  0.35349939  0.18882929    -0.18200
C1862       C  0.84722918  0.35212335  0.10120914    -0.18200
C1863       C  0.90558523  0.41752226  0.10239140    -0.18200
H1864       H  0.89956210  0.39377575  0.23562739     0.14700
H1865       H  0.86667067  0.35938175  0.23494837     0.14700
H1866       H  0.90658625  0.38985583  0.05860988     0.14700
H1867       H  0.87549785  0.35400463  0.05829839     0.14700
H1868       H  0.92892632  0.45893513  0.17089795     0.13000
H1869       H  0.92934201  0.45900895  0.12302236     0.13000
H1870       H  0.80364758  0.32761949  0.16697417     0.13000
H1871       H  0.80560601  0.32707485  0.11910285     0.13000
H1872       H  0.86874519  0.39060586  0.16505144     0.26300
H1873       H  0.86895743  0.39120251  0.12529664     0.26300
N1874       N  0.87683562  0.57769025  0.38669612    -0.36500
N1875       N  0.90012322  0.61561201  0.35977687    -0.57100
N1876       N  0.87169182  0.65158409  0.38654929    -0.36500
N1877       N  0.84575853  0.61335112  0.41058014    -0.57100
C1878       C  0.88813215  0.56463379  0.36943219     0.27100
C1879       C  0.85972600  0.56334881  0.39641503     0.27100
C1880       C  0.88192027  0.66547720  0.36947595     0.27100
C1881       C  0.85310186  0.66420952  0.39583082     0.27100
C1882       C  0.91399520  0.59701616  0.35250913     0.35700
C1883       C  0.91143411  0.63596552  0.35275423     0.35700
C1884       C  0.83901611  0.59345234  0.42275866     0.35700
C1885       C  0.83582200  0.63237095  0.42211562     0.35700
C1886       C  0.87811549  0.54170888  0.36832395    -0.21800
C1887       C  0.86033252  0.54085614  0.38540721    -0.21800
C1888       C  0.87005549  0.68734893  0.36827268    -0.21800
C1889       C  0.85183275  0.68649826  0.38476455    -0.21800
C1890       C  0.93415753  0.60561189  0.34064933    -0.22800
C1891       C  0.93248593  0.63029463  0.34072333    -0.22800
C1892       C  0.82455138  0.59984392  0.44205770    -0.22800
C1893       C  0.82247318  0.62450012  0.44160124    -0.22800
C1894       C  0.90791847  0.57240506  0.35532955    -0.18200
C1895       C  0.84422568  0.56951497  0.41567484    -0.18200
C1896       C  0.83748676  0.65656926  0.41437049    -0.18200
C1897       C  0.90213994  0.65947094  0.35538466    -0.18200
H1898       H  0.88312171  0.52703138  0.35647370     0.14700
H1899       H  0.84908318  0.52538361  0.38924452     0.14700
H1900       H  0.87399141  0.70240245  0.35661053     0.14700
H1901       H  0.83904749  0.70073781  0.38809688     0.14700
H1902       H  0.94846014  0.59521021  0.33260129     0.13000
H1903       H  0.94518966  0.64265604  0.33264652     0.13000
H1904       H  0.81607138  0.58795149  0.45490307     0.13000
H1905       H  0.81216724  0.63537004  0.45404172     0.13000
H1906       H  0.88135960  0.59491633  0.39254935     0.26300
H1907       H  0.87776187  0.63490988  0.39211185     0.26300
N1908       N  0.87295996  0.18408152  0.37499317    -0.36500
N1909       N  0.84779947  0.14971827  0.34301503    -0.57100
N1910       N  0.87443609  0.11109686  0.36519550    -0.36500
N1911       N  0.90211156  0.14543612  0.39474966    -0.57100
C1912       C  0.86164340  0.19923448  0.35958797     0.27100
C1913       C  0.89020102  0.19697308  0.38697248     0.27100
C1914       C  0.86502449  0.09991187  0.34549305     0.27100
C1915       C  0.89289709  0.09748813  0.37307337     0.27100
C1916       C  0.83453758  0.16949875  0.33856949     0.35700
C1917       C  0.83530461  0.13079058  0.33372191     0.35700
C1918       C  0.90970460  0.16346969  0.40954560     0.35700
C1919       C  0.90949197  0.12468152  0.40493774     0.35700
C1920       C  0.87154499  0.22211139  0.36213155    -0.21800
C1921       C  0.88948881  0.22069451  0.37938600    -0.21800
C1922       C  0.87784088  0.07911198  0.34062317    -0.21800
C1923       C  0.89533782  0.07744885  0.35826216    -0.21800
C1924       C  0.81358981  0.16318008  0.32611818    -0.22800
C1925       C  0.81400000  0.13858605  0.32317319    -0.22800
C1926       C  0.92244304  0.15415413  0.42899094    -0.22800
C1927       C  0.92217069  0.12952155  0.42615087    -0.22800
C1928       C  0.84202197  0.19331744  0.34393073    -0.18200
C1929       C  0.90603479  0.18824359  0.40518182    -0.18200
C1930       C  0.90603706  0.10159264  0.39456566    -0.18200
C1931       C  0.84391064  0.10690930  0.33317681    -0.18200
H1932       H  0.86635943  0.23823233  0.35258159     0.14700
H1933       H  0.90074670  0.23550997  0.38561694     0.14700
H1934       H  0.87445532  0.06613435  0.32628437     0.14700
H1935       H  0.90818594  0.06299756  0.36017907     0.14700
H1936       H  0.79960197  0.17507792  0.31965345     0.13000
H1937       H  0.80039287  0.12776872  0.31398453     0.13000
H1938       H  0.93097193  0.16406753  0.44369456     0.13000
H1939       H  0.93062476  0.11668819  0.43811968     0.13000
H1940       H  0.86842427  0.16623553  0.37790844     0.26300
H1941       H  0.86740338  0.12597680  0.37407028     0.26300
O1942       O  0.02130294  0.27266212  0.68362500    -0.78400
C1943       C  0.97695820  0.20636582  0.69549395     0.82700
O1944       O  0.96190568  0.29197659  0.74235153    -0.79500
O1945       O  0.98242988  0.20999488  0.77024935    -0.81000
O1946       O  0.06071943  0.23537088  0.75401383    -0.80800
O1947       O  0.05284180  0.27712395  0.70834197    -0.79400
Zn1948     Zn  0.99601760  0.25678746  0.70383589     1.55700
O1949       O  0.03676904  0.20294559  0.75319378    -0.80800
Cd1950     Cd  0.03991568  0.26203732  0.73944654     1.59700
Cd1951     Cd  0.98529583  0.26896249  0.76052669     1.59600
O1952       O  0.04276494  0.28828287  0.76506349    -0.80800
O1953       O  0.00600785  0.25146084  0.73638552    -1.91300
Cd1954     Cd  0.00447491  0.21649427  0.74191766     1.59900
O1955       O  0.00735046  0.28896645  0.78401455    -0.80800
O1956       O  0.98754652  0.19810655  0.71415241    -0.79400
C1957       C  0.95908190  0.29351401  0.71951914     0.83100
C1958       C  0.04230799  0.28101052  0.68821715     0.82800
O1959       O  0.97996005  0.22804044  0.68885558    -0.78400
C1960       C  0.05628085  0.21356815  0.75940492     0.83600
O1961       O  0.97075744  0.28077468  0.70471489    -0.78500
C1962       C  0.02938280  0.29539223  0.78212429     0.83700
C1963       C  0.96760666  0.22192626  0.78280416     0.84000
O1964       O  0.96520898  0.24463546  0.78075385    -0.80900
C1965       C  0.03116585  0.21525246  0.00022837     0.80300
N1966       N  0.01095260  0.20554107  0.01007358    -0.78000
C1967       C  0.00125616  0.21510513  0.03045318     0.82800
N1968       N  0.01233880  0.23423683  0.04118457    -0.77900
C1969       C  0.03256619  0.24413672  0.03178623     0.82900
N1970       N  0.04185806  0.23454262  0.01126421    -0.79600
N1971       N  0.11021320  0.32556053  0.11915260    -0.36500
N1972       N  0.08076772  0.36322965  0.09618659    -0.57100
N1973       N  0.10602104  0.39851691  0.12508630    -0.36500
N1974       N  0.13294982  0.36105197  0.15040878    -0.57100
C1975       C  0.09291054  0.31228520  0.10785262     0.27100
C1976       C  0.12108822  0.31122074  0.13565572     0.27100
C1977       C  0.08861019  0.41216074  0.11506038     0.27100
C1978       C  0.11494874  0.41093226  0.14419553     0.27100
C1979       C  0.07484013  0.34429718  0.08194437     0.35700
C1980       C  0.07381718  0.38315348  0.08417734     0.35700
C1981       C  0.14711242  0.34206818  0.15566035     0.35700
C1982       C  0.14457914  0.38081838  0.15891552     0.35700
C1983       C  0.09293566  0.28914061  0.11712703    -0.21800
C1984       C  0.11074644  0.28846192  0.13462386    -0.21800
C1985       C  0.08639197  0.43349989  0.12794080    -0.21800
C1986       C  0.10302845  0.43270809  0.14641535    -0.21800
C1987       C  0.06363012  0.35219655  0.06091725    -0.22800
C1988       C  0.06299806  0.37690415  0.06234678    -0.22800
C1989       C  0.16770233  0.34974988  0.16791336    -0.22800
C1990       C  0.16611678  0.37438094  0.16993906    -0.22800
C1991       C  0.07817805  0.31997656  0.08833456    -0.18200
C1992       C  0.14084430  0.31783920  0.15077870    -0.18200
C1993       C  0.13538005  0.40440717  0.15784697    -0.18200
C1994       C  0.07621982  0.40675166  0.09339804    -0.18200
H1995       H  0.08144416  0.27420144  0.11168809     0.14700
H1996       H  0.11561022  0.27293768  0.14527943     0.14700
H1997       H  0.07441499  0.44832135  0.12410962     0.14700
H1998       H  0.10647149  0.44688948  0.15953094     0.14700
H1999       H  0.05652055  0.34128391  0.04617764     0.13000
H2000       H  0.05531024  0.38885496  0.04900546     0.13000
H2001       H  0.18226081  0.33875277  0.17473105     0.13000
H2002       H  0.17920633  0.38617697  0.17865619     0.13000
H2003       H  0.11525044  0.34297727  0.11475460     0.26300
H2004       H  0.11295306  0.38270786  0.11803487     0.26300
C2005       C  0.03204033  0.05288628  0.22272825     0.80300
N2006       N  0.04109159  0.03248457  0.21272192    -0.78000
C2007       C  0.03182244  0.02338452  0.19174315     0.82800
N2008       N  0.01348367  0.03503851  0.18059508    -0.77900
C2009       C  0.00423990  0.05551447  0.19002475     0.82900
N2010       N  0.01363003  0.06431015  0.21116598    -0.79600
C2011       C  0.19028187  0.23864549  0.19830181     0.80300
N2012       N  0.21040430  0.22906269  0.18822651    -0.78000
C2013       C  0.22096343  0.20914686  0.19766925     0.82800
N2014       N  0.21100338  0.19879398  0.21744177    -0.77900
C2015       C  0.19098392  0.20795326  0.22791564     0.82900
N2016       N  0.18060959  0.22779831  0.21803894    -0.79600
N2017       N  0.11100055  0.12804844  0.31303247    -0.36500
N2018       N  0.14366814  0.14728492  0.34973216    -0.57100
N2019       N  0.11590407  0.12161591  0.38647693    -0.36500
N2020       N  0.08548902  0.09992796  0.34971992    -0.57100
C2021       C  0.12824730  0.13828242  0.29921021     0.27100
C2022       C  0.09905383  0.11175376  0.29902642     0.27100
C2023       C  0.13533587  0.12890779  0.39948363     0.27100
C2024       C  0.10435345  0.10483933  0.39968845     0.27100
C2025       C  0.14997549  0.16162679  0.33115214     0.35700
C2026       C  0.15299715  0.15757581  0.36998076     0.35700
C2027       C  0.07161944  0.09456653  0.33019830     0.35700
C2028       C  0.07308795  0.09281373  0.36938747     0.35700
C2029       C  0.12711237  0.12856758  0.27608728    -0.21800
C2030       C  0.10876086  0.11179347  0.27597389    -0.21800
C2031       C  0.13622544  0.11665399  0.42122083    -0.21800
C2032       C  0.11661108  0.10150256  0.42140062    -0.21800
C2033       C  0.16377480  0.18085859  0.33957702    -0.22800
C2034       C  0.16570557  0.17827815  0.36421768    -0.22800
C2035       C  0.05034399  0.08365723  0.33744186    -0.22800
C2036       C  0.05124173  0.08261529  0.36232084    -0.22800
C2037       C  0.14426131  0.15693523  0.30660039    -0.18200
C2038       C  0.07870233  0.09791629  0.30594195    -0.18200
C2039       C  0.08224314  0.09365308  0.39335593    -0.18200
C2040       C  0.15064998  0.14823452  0.39353018    -0.18200
H2041       H  0.13833104  0.13311817  0.26085705     0.14700
H2042       H  0.10305442  0.10103925  0.26053803     0.14700
H2043       H  0.14929288  0.11890040  0.43574197     0.14700
H2044       H  0.11174655  0.08976585  0.43611963     0.14700
H2045       H  0.17158893  0.19525671  0.32908868     0.13000
H2046       H  0.17530439  0.19029259  0.37648618     0.13000
H2047       H  0.03581586  0.07696873  0.32598529     0.13000
H2048       H  0.03761105  0.07485426  0.37383422     0.13000
H2049       H  0.10668188  0.13297908  0.33057412     0.26300
H2050       H  0.10985138  0.12913862  0.37045454     0.26300
C2051       C  0.22212608  0.04839409  0.04164951     0.80300
N2052       N  0.21138111  0.02801599  0.05008456    -0.78000
C2053       C  0.19093609  0.01907479  0.03935517     0.82800
N2054       N  0.18145538  0.03077516  0.02010150    -0.77900
C2055       C  0.19179112  0.05109698  0.01152687     0.82900
N2056       N  0.21202877  0.05980775  0.02245355    -0.79600
N2057       N  0.30829490  0.12846173  0.12168324    -0.36500
N2058       N  0.34534122  0.09949664  0.09854362    -0.57100
N2059       N  0.38182376  0.12843096  0.12357366    -0.36500
N2060       N  0.34496915  0.15504332  0.14915749    -0.57100
C2061       C  0.29454241  0.11120493  0.11086239     0.27100
C2062       C  0.29428246  0.14005941  0.13788129     0.27100
C2063       C  0.39509858  0.11004182  0.11503590     0.27100
C2064       C  0.39497658  0.13907160  0.14134476     0.27100
C2065       C  0.32608075  0.09189235  0.08542964     0.35700
C2066       C  0.36508445  0.09179782  0.08676612     0.35700
C2067       C  0.32545071  0.16767858  0.15598728     0.35700
C2068       C  0.36452507  0.16781480  0.15655521     0.35700
C2069       C  0.27140685  0.11201355  0.12011261    -0.21800
C2070       C  0.27123820  0.13018116  0.13712224    -0.21800
C2071       C  0.41692467  0.10902657  0.12741899    -0.21800
C2072       C  0.41684454  0.12737728  0.14407117    -0.21800
C2073       C  0.33361752  0.07889346  0.06541109    -0.22800
C2074       C  0.35841422  0.07888090  0.06624232    -0.22800
C2075       C  0.33264691  0.18842716  0.16821287    -0.22800
C2076       C  0.35745763  0.18857305  0.16845672    -0.22800
C2077       C  0.30181325  0.09567942  0.09187098    -0.18200
C2078       C  0.30127497  0.16009233  0.15244451    -0.18200
C2079       C  0.38856390  0.16007828  0.15401823    -0.18200
C2080       C  0.38894493  0.09539534  0.09506171    -0.18200
H2081       H  0.25611960  0.10083644  0.11496045     0.14700
H2082       H  0.25578065  0.13563136  0.14756872     0.14700
H2083       H  0.43152675  0.09653648  0.12453229     0.14700
H2084       H  0.43137304  0.13178706  0.15657649     0.14700
H2085       H  0.32242571  0.07029914  0.05168427     0.13000
H2086       H  0.37016216  0.07024288  0.05335473     0.13000
H2087       H  0.32122525  0.20195470  0.17624933     0.13000
H2088       H  0.36895117  0.20218063  0.17674839     0.13000
H2089       H  0.32581316  0.13294873  0.11724502     0.26300
H2090       H  0.36562993  0.13450463  0.11642495     0.26300
N2091       N  0.11419512  0.13223335  0.92330407    -0.36500
N2092       N  0.09660100  0.16193177  0.88418668    -0.57100
N2093       N  0.12801719  0.13617689  0.85097600    -0.36500
N2094       N  0.14807186  0.10907760  0.89016290    -0.57100
C2095       C  0.10222813  0.14944384  0.93569124     0.27100
C2096       C  0.12974955  0.12179734  0.93894789     0.27100
C2097       C  0.12118615  0.15511370  0.83759001     0.27100
C2098       C  0.14797315  0.12718846  0.84060180     0.27100
C2099       C  0.08026406  0.16766796  0.90117349     0.35700
C2100       C  0.08741186  0.16935334  0.86284730     0.35700
C2101       C  0.15107671  0.09520547  0.90984236     0.35700
C2102       C  0.15782910  0.09693003  0.87144945     0.35700
C2103       C  0.11004473  0.14972017  0.95958839    -0.21800
C2104       C  0.12748361  0.13232261  0.96162551    -0.21800
C2105       C  0.13700355  0.15832099  0.81857349    -0.21800
C2106       C  0.15399348  0.14060490  0.82049172    -0.21800
C2107       C  0.06068348  0.17905946  0.89065685    -0.22800
C2108       C  0.06517358  0.18002724  0.86625668    -0.22800
C2109       C  0.16303851  0.07422787  0.90369056    -0.22800
C2110       C  0.16723653  0.07528099  0.87927811    -0.22800
C2111       C  0.08374606  0.16417556  0.92618461    -0.18200
C2112       C  0.14498828  0.10219731  0.93356915    -0.18200
C2113       C  0.15964744  0.10605928  0.84779425    -0.18200
C2114       C  0.09974985  0.16799723  0.84070863    -0.18200
H2115       H  0.10381514  0.16123694  0.97406635     0.14700
H2116       H  0.13722666  0.12777880  0.97800280     0.14700
H2117       H  0.13606967  0.17172687  0.80449391     0.14700
H2118       H  0.16879829  0.13763216  0.80824088     0.14700
H2119       H  0.04492524  0.18603297  0.89964820     0.13000
H2120       H  0.05359916  0.18796822  0.85265714     0.13000
H2121       H  0.16835603  0.05978502  0.91559804     0.13000
H2122       H  0.17640938  0.06182017  0.86861363     0.13000
H2123       H  0.11102962  0.12697537  0.90549654     0.26300
H2124       H  0.11838780  0.12863556  0.86508971     0.26300
N2125       N  0.10905150  0.93444537  0.11342291    -0.36500
N2126       N  0.08218301  0.89976130  0.14181808    -0.57100
N2127       N  0.10748663  0.86084536  0.11768533    -0.36500
N2128       N  0.13700781  0.89562462  0.09192205    -0.57100
C2129       C  0.09834471  0.94919340  0.12960291     0.27100
C2130       C  0.12721269  0.94703368  0.10323442     0.27100
C2131       C  0.09656490  0.84879178  0.13568534     0.27100
C2132       C  0.12520213  0.84657511  0.10936583     0.27100
C2133       C  0.06957674  0.91972153  0.14724431     0.35700
C2134       C  0.06882496  0.88091926  0.14934835     0.35700
C2135       C  0.14546143  0.91413700  0.07868988     0.35700
C2136       C  0.14442367  0.87523167  0.08092727     0.35700
C2137       C  0.10969219  0.97150828  0.12950495    -0.21800
C2138       C  0.12784378  0.97017248  0.11283242    -0.21800
C2139       C  0.10727906  0.82652113  0.13867517    -0.21800
C2140       C  0.12534267  0.82509595  0.12200134    -0.21800
C2141       C  0.04816995  0.91354661  0.15845522    -0.22800
C2142       C  0.04773019  0.88889740  0.15984934    -0.22800
C2143       C  0.15859694  0.90548482  0.05932381    -0.22800
C2144       C  0.15794653  0.88077894  0.06075318    -0.22800
C2145       C  0.07791617  0.94345444  0.14365401    -0.18200
C2146       C  0.14250848  0.93870290  0.08465281    -0.18200
C2147       C  0.14038658  0.85178398  0.08979136    -0.18200
C2148       C  0.07641792  0.85679269  0.14867489    -0.18200
H2149       H  0.10528262  0.98720294  0.14023449     0.14700
H2150       H  0.14009882  0.98465056  0.10827003     0.14700
H2151       H  0.10247665  0.81264003  0.15142456     0.14700
H2152       H  0.13715630  0.80989180  0.11940767     0.14700
H2153       H  0.03442568  0.92554294  0.16514373     0.13000
H2154       H  0.03367905  0.87809237  0.16793141     0.13000
H2155       H  0.16785311  0.91588202  0.04573830     0.13000
H2156       H  0.16660979  0.86833781  0.04850968     0.13000
H2157       H  0.10343536  0.91723452  0.10859405     0.26300
H2158       H  0.10223484  0.87721364  0.11051947     0.26300
N2159       N  0.91808328  0.13508988  0.11102995    -0.36500
N2160       N  0.88078929  0.16255562  0.08690637    -0.57100
N2161       N  0.84444479  0.13651553  0.11398958    -0.36500
N2162       N  0.88170704  0.11122672  0.14055442    -0.57100
C2163       C  0.93141582  0.15224636  0.10009400     0.27100
C2164       C  0.93194024  0.12555339  0.12870857     0.27100
C2165       C  0.83084165  0.15401615  0.10417817     0.27100
C2166       C  0.83132004  0.12643319  0.13167494     0.27100
C2167       C  0.89970494  0.16894282  0.07314830     0.35700
C2168       C  0.86082161  0.16996467  0.07509158     0.35700
C2169       C  0.90130718  0.09843320  0.14702587     0.35700
C2170       C  0.86225878  0.09855214  0.14787882     0.35700
C2171       C  0.95411480  0.15347359  0.11078335    -0.21800
C2172       C  0.95444010  0.13662684  0.12888015    -0.21800
C2173       C  0.80871642  0.15494721  0.11561483    -0.21800
C2174       C  0.80903771  0.13754745  0.13304271    -0.21800
C2175       C  0.89178657  0.18073923  0.05258924    -0.22800
C2176       C  0.86708024  0.18144563  0.05385005    -0.22800
C2177       C  0.89432353  0.07766047  0.15889279    -0.22800
C2178       C  0.86950873  0.07772516  0.15940360    -0.22800
C2179       C  0.92403689  0.16591723  0.07993586    -0.18200
C2180       C  0.92537485  0.10606636  0.14359907    -0.18200
C2181       C  0.83817644  0.10633316  0.14539324    -0.18200
C2182       C  0.83719870  0.16801822  0.08411767    -0.18200
H2183       H  0.96895094  0.16519316  0.10596725     0.14700
H2184       H  0.96959563  0.13282216  0.14069456     0.14700
H2185       H  0.79371655  0.16666060  0.11157821     0.14700
H2186       H  0.79435729  0.13330749  0.14507935     0.14700
H2187       H  0.90268431  0.18834636  0.03838421     0.13000
H2188       H  0.85513121  0.18970728  0.04078360     0.13000
H2189       H  0.90590003  0.06400259  0.16651039     0.13000
H2190       H  0.85812196  0.06416273  0.16750949     0.13000
H2191       H  0.90106396  0.12913199  0.10572400     0.26300
H2192       H  0.86100668  0.13065156  0.10786648     0.26300
C2193       C  0.27640393  0.05921200  0.08380229    -0.26200
C2194       C  0.28264101  0.08289101  0.07783266    -0.14300
C2195       C  0.26996974  0.09460731  0.05920093     0.36300
C2196       C  0.25081993  0.08282549  0.04745800    -0.25700
C2197       C  0.24374442  0.05930605  0.05385588    -0.14900
C2198       C  0.25715410  0.04728599  0.07197775     0.37400
N2199       N  0.25146053  0.02302244  0.07846389    -0.89200
H2200       H  0.28631415  0.05007936  0.09797093     0.18500
H2201       H  0.24116284  0.09249670  0.03349943     0.18500
N2202       N  0.27616045  0.11855224  0.05195533    -0.88200
H2203       H  0.24756735  0.02273581  0.09692231     0.35900
H2204       H  0.26675750  0.01251815  0.07564275     0.41000
H2205       H  0.29420011  0.11870341  0.04664322     0.40600
H2206       H  0.27441691  0.13005804  0.06685506     0.35500
C2207       C  0.14289057  0.97223073  0.05540159    -0.26200
C2208       C  0.15589718  0.95720894  0.07082672    -0.14300
C2209       C  0.18053555  0.96172982  0.07502667     0.36300
C2210       C  0.19171530  0.98160661  0.06413226    -0.25700
C2211       C  0.17860454  0.99729328  0.04910513    -0.14900
C2212       C  0.15374610  0.99210995  0.04458861     0.37400
N2213       N  0.13855845  0.00702509  0.03002844    -0.89200
H2214       H  0.12379985  0.96891160  0.05240224     0.18500
H2215       H  0.21066949  0.98494978  0.06782506     0.18500
N2216       N  0.19400904  0.94661235  0.09098864    -0.88200
H2217       H  0.14465802  0.00669231  0.01222144     0.35900
H2218       H  0.13897172  0.02455826  0.03698829     0.41000
H2219       H  0.20104265  0.95734872  0.10499763     0.40600
H2220       H  0.20846199  0.93949495  0.08134737     0.35500
C2221       C  0.15523243  0.06131945  0.98730477    -0.26200
C2222       C  0.18017225  0.06425539  0.99137547    -0.14300
C2223       C  0.19337086  0.07976279  0.97621967     0.36300
C2224       C  0.18144419  0.09218515  0.95773223    -0.25700
C2225       C  0.15659186  0.08923043  0.95385517    -0.14900
C2226       C  0.14340277  0.07349639  0.96869745     0.37400
N2227       N  0.11814473  0.06915132  0.96490983    -0.89200
H2228       H  0.14471792  0.04960442  0.99872729     0.18500
H2229       H  0.19168110  0.10401698  0.94611862     0.18500
N2230       N  0.21894322  0.08251171  0.97905540    -0.88200
H2231       H  0.11552370  0.06296515  0.94717496     0.35900
H2232       H  0.10893554  0.08534781  0.96698326     0.41000
H2233       H  0.22275113  0.10073745  0.98212425     0.40600
H2234       H  0.22702696  0.07743132  0.96282015     0.35500
C2235       C  0.15499336  0.19893871  0.25343517    -0.26200
C2236       C  0.17977345  0.19570540  0.24913565    -0.14300
C2237       C  0.19297698  0.18060900  0.26512640     0.36300
C2238       C  0.18119388  0.16880716  0.28397071    -0.25700
C2239       C  0.15640339  0.17139825  0.28751376    -0.14900
C2240       C  0.14322172  0.18695329  0.27240111     0.37400
N2241       N  0.11786742  0.19028453  0.27627545    -0.89200
H2242       H  0.14457850  0.21049717  0.24166705     0.18500
H2243       H  0.19142538  0.15702779  0.29570213     0.18500
N2244       N  0.21837301  0.17685850  0.26300749    -0.88200
H2245       H  0.11071228  0.20219334  0.26357707     0.35900
H2246       H  0.11590704  0.19843842  0.29322836     0.41000
H2247       H  0.22716656  0.19354834  0.26265651     0.40600
H2248       H  0.22157048  0.16729640  0.24707798     0.35500
C2249       C  0.25448229  0.17910867  0.19834896    -0.26200
C2250       C  0.24266914  0.19803815  0.18630232    -0.14300
C2251       C  0.25152901  0.20525695  0.16349147     0.36300
C2252       C  0.27091340  0.19293852  0.15300784    -0.25700
C2253       C  0.28195217  0.17370124  0.16488103    -0.14900
C2254       C  0.27389779  0.16702811  0.18796230     0.37400
N2255       N  0.28499251  0.14785746  0.20110470    -0.89200
H2256       H  0.24859218  0.17339137  0.21597219     0.18500
H2257       H  0.27721929  0.19824445  0.13532708     0.18500
N2258       N  0.24085031  0.22482137  0.15063848    -0.88200
H2259       H  0.30326503  0.15205271  0.20352826     0.35900
H2260       H  0.28363378  0.13210596  0.19073209     0.41000
H2261       H  0.23479052  0.21837215  0.13382583     0.40600
H2262       H  0.25424954  0.23774855  0.14763264     0.35500
C2263       C  0.07073873  0.06208548  0.27983593    -0.26200
C2264       C  0.06468068  0.08561825  0.28637987    -0.14300
C2265       C  0.04706044  0.09791727  0.27283789     0.36300
C2266       C  0.03622759  0.08670431  0.25271314    -0.25700
C2267       C  0.04281546  0.06332630  0.24539471    -0.14900
C2268       C  0.06009718  0.05085070  0.25953950     0.37400
N2269       N  0.06717118  0.02686434  0.25340956    -0.89200
H2270       H  0.08436724  0.05262125  0.29016079     0.18500
H2271       H  0.02301390  0.09671726  0.24240678     0.18500
N2272       N  0.04015572  0.12196593  0.27897178    -0.88200
H2273       H  0.06356934  0.01577067  0.26815381     0.35900
H2274       H  0.08578280  0.02687873  0.25056441     0.41000
H2275       H  0.05543152  0.13304968  0.27825910     0.40600
H2276       H  0.03387622  0.12200705  0.29673479     0.35500
C2277       C  0.97059875  0.08507612  0.19077277    -0.26200
C2278       C  0.98403061  0.06814256  0.17755041    -0.14300
C2279       C  0.97780142  0.06406335  0.15278570     0.36300
C2280       C  0.95847825  0.07640264  0.14239381    -0.25700
C2281       C  0.94506151  0.09283001  0.15585528    -0.14900
C2282       C  0.95136258  0.09743116  0.18017387     0.37400
N2283       N  0.93878776  0.11490907  0.19431609    -0.89200
H2284       H  0.97498036  0.08880264  0.20956471     0.18500
H2285       H  0.95395518  0.07327148  0.12351040     0.18500
N2286       N  0.99090934  0.04811911  0.13736525    -0.88200
H2287       H  0.92060712  0.10988431  0.19496161     0.35900
H2288       H  0.94002967  0.13151047  0.18563266     0.41000
H2289       H  0.98893615  0.03050201  0.14354445     0.40600
H2290       H  0.00908500  0.05322102  0.13753611     0.35500
C2291       C  0.06545921  0.96479061  0.18128549    -0.26200
C2292       C  0.06508062  0.96340136  0.15595859    -0.14300
C2293       C  0.05281466  0.98098603  0.14251256     0.36300
C2294       C  0.04182460  0.00016013  0.15466525    -0.25700
C2295       C  0.04258237  0.00197519  0.18003901    -0.14900
C2296       C  0.05403509  0.98371963  0.19352349     0.37400
N2297       N  0.05378988  0.98425545  0.21950134    -0.89200
H2298       H  0.07469893  0.95099096  0.19148440     0.18500
H2299       H  0.03304288  0.01400589  0.14417443     0.18500
N2300       N  0.05192451  0.97943179  0.11655704    -0.88200
H2301       H  0.06313958  0.96957968  0.22658178     0.35900
H2302       H  0.03586448  0.98231406  0.22487803     0.41000
H2303       H  0.04221308  0.96386143  0.11189289     0.40600
H2304       H  0.04238959  0.99391496  0.10933816     0.35500
C2305       C  0.14982655  0.29335883  0.18744454    -0.26200
C2306       C  0.15463761  0.29843794  0.16318059    -0.14300
C2307       C  0.17207537  0.28476268  0.15092659     0.36300
C2308       C  0.18373803  0.26585614  0.16282990    -0.25700
C2309       C  0.17845376  0.26004356  0.18699907    -0.14900
C2310       C  0.16163020  0.27449727  0.19958262     0.37400
N2311       N  0.15663717  0.27019548  0.22464218    -0.89200
H2312       H  0.13666321  0.30413623  0.19690085     0.18500
H2313       H  0.19670571  0.25535200  0.15282717     0.18500
N2314       N  0.17827083  0.28975615  0.12637409    -0.88200
H2315       H  0.14358216  0.28210659  0.23097681     0.35900
H2316       H  0.17243228  0.27397874  0.23446577     0.41000
H2317       H  0.18421119  0.30761546  0.12544141     0.40600
H2318       H  0.16276068  0.28789491  0.11561656     0.35500
C2319       C  0.08015563  0.28724916  0.05785062    -0.26200
C2320       C  0.06610219  0.30123684  0.07331580    -0.14300
C2321       C  0.04112265  0.29680107  0.07476267     0.36300
C2322       C  0.03064375  0.27870288  0.06042663    -0.25700
C2323       C  0.04463080  0.26441015  0.04485697    -0.14900
C2324       C  0.06984613  0.26885402  0.04378653     0.37400
N2325       N  0.08570877  0.25459198  0.02942784    -0.89200
H2326       H  0.09943350  0.29046053  0.05699573     0.18500
H2327       H  0.01139982  0.27559791  0.06180558     0.18500
N2328       N  0.02617712  0.30985212  0.09120196    -0.88200
H2329       H  0.08121202  0.25689917  0.01124108     0.35900
H2330       H  0.08366893  0.23652271  0.03416324     0.41000
H2331       H  0.03312642  0.30772699  0.10868928     0.40600
H2332       H  0.02688533  0.32810464  0.08686558     0.35500
C2333       C  0.03830958  0.17860072  0.97502152    -0.26200
C2334       C  0.04285808  0.20322507  0.97929792    -0.14300
C2335       C  0.05949727  0.21533863  0.96433786     0.36300
C2336       C  0.07210810  0.20246130  0.94661550    -0.25700
C2337       C  0.06837832  0.17769305  0.94338741    -0.14900
C2338       C  0.05096918  0.16581958  0.95730229     0.37400
N2339       N  0.04635021  0.14067605  0.95363424    -0.89200
H2340       H  0.02546715  0.16891694  0.98600642     0.18500
H2341       H  0.08528664  0.21174064  0.93566365     0.18500
N2342       N  0.06360841  0.24069509  0.96686898    -0.88200
H2343       H  0.02808925  0.13849620  0.94922875     0.35900
H2344       H  0.04961119  0.13187725  0.96998389     0.41000
H2345       H  0.05922750  0.24879397  0.95040682     0.40600
H2346       H  0.08203249  0.24347766  0.97005404     0.35500
C2347       C  0.94801373  0.20281666  0.07193769    -0.26200
C2348       C  0.94277746  0.17882799  0.06609122    -0.14300
C2349       C  0.95564415  0.16712275  0.04772828     0.36300
C2350       C  0.97415992  0.17955791  0.03587007    -0.25700
C2351       C  0.98007576  0.20350917  0.04205727    -0.14900
C2352       C  0.96642742  0.21540284  0.06008759     0.37400
N2353       N  0.97122676  0.24012357  0.06642018    -0.89200
H2354       H  0.93778442  0.21163640  0.08600691     0.18500
H2355       H  0.98437768  0.17022700  0.02214790     0.18500
N2356       N  0.95012383  0.14251056  0.04158578    -0.88200
H2357       H  0.95998575  0.24581500  0.08037461     0.35900
H2358       H  0.96688355  0.25056530  0.05135540     0.41000
H2359       H  0.96145434  0.13638892  0.02788848     0.40600
H2360       H  0.93258419  0.14198394  0.03448409     0.35500
C2361       C  0.08200988  0.21575721  0.79580359    -0.26200
C2362       C  0.07212996  0.20157131  0.77694729    -0.14300
C2363       C  0.07270843  0.17628953  0.77857832     0.36300
C2364       C  0.08152554  0.16575620  0.79979045    -0.25700
C2365       C  0.08990548  0.18004875  0.81914502    -0.14900
C2366       C  0.09089831  0.20518524  0.81696036     0.37400
N2367       N  0.10042983  0.21977916  0.83642545    -0.89200
H2368       H  0.08140237  0.23520557  0.79473096     0.18500
H2369       H  0.08172282  0.14633093  0.80141012     0.18500
N2370       N  0.06383004  0.16152562  0.75894841    -0.88200
H2371       H  0.11871479  0.21569968  0.83840245     0.35900
H2372       H  0.09952883  0.23803026  0.83205358     0.41000
H2373       H  0.06547200  0.14328451  0.76313195     0.40600
H2374       H  0.07490725  0.16465417  0.74409415     0.35500
C2375       C  0.93990560  0.34147769  0.67772200    -0.26200
C2376       C  0.91675621  0.33322540  0.67158595    -0.14300
C2377       C  0.90593202  0.31464333  0.68502582     0.36300
C2378       C  0.91914190  0.30352726  0.70341666    -0.25700
C2379       C  0.94287747  0.31084990  0.70856331    -0.14900
C2380       C  0.95308478  0.33040374  0.69601900     0.37400
N2381       N  0.97728354  0.33850414  0.70075873    -0.89200
H2382       H  0.94794901  0.35618718  0.66778967     0.18500
H2383       H  0.91153528  0.28802372  0.71245414     0.18500
N2384       N  0.88196945  0.30626197  0.67970761    -0.88200
H2385       H  0.98918098  0.32446230  0.69712177     0.35900
H2386       H  0.97875341  0.34296589  0.71911282     0.41000
H2387       H  0.88132102  0.30043986  0.66169744     0.40600
H2388       H  0.87017518  0.32073410  0.68159795     0.35500
C2389       C  0.91843935  0.30232020  0.51024775    -0.26200
C2390       C  0.94327846  0.30688963  0.50749951    -0.14300
C2391       C  0.95514509  0.32222906  0.52446315     0.36300
C2392       C  0.94179605  0.33313180  0.54307657    -0.25700
C2393       C  0.91695811  0.32889621  0.54529715    -0.14900
C2394       C  0.90522044  0.31313705  0.52891970     0.37400
N2395       N  0.87978605  0.30859120  0.53109096    -0.89200
H2396       H  0.90908855  0.29063473  0.49745567     0.18500
H2397       H  0.95071553  0.34521282  0.55581804     0.18500
N2398       N  0.98064998  0.32664175  0.52288286    -0.88200
H2399       H  0.87376049  0.29679162  0.51748956     0.35900
H2400       H  0.87706872  0.29985158  0.54753280     0.41000
H2401       H  0.98938068  0.31034740  0.52612870     0.40600
H2402       H  0.98642226  0.33857152  0.53648235     0.35500
C2403       C  0.92117019  0.23904292  0.44933955    -0.26200
C2404       C  0.94514061  0.24493813  0.44316184    -0.14300
C2405       C  0.95661580  0.23049344  0.42535779     0.36300
C2406       C  0.94394961  0.21142205  0.41416521    -0.25700
C2407       C  0.91989619  0.20635613  0.41988411    -0.14900
C2408       C  0.90850145  0.22005118  0.43788397     0.37400
N2409       N  0.88386373  0.21494328  0.44399900    -0.89200
H2410       H  0.91191363  0.24962000  0.46284277     0.18500
H2411       H  0.95272404  0.20091809  0.40025189     0.18500
N2412       N  0.98099127  0.23457330  0.41805278    -0.88200
H2413       H  0.87792866  0.22681038  0.45739156     0.35900
H2414       H  0.88330232  0.19771422  0.45145984     0.41000
H2415       H  0.99223756  0.23406092  0.43332019     0.40600
H2416       H  0.98221659  0.25141740  0.40988051     0.35500
C2417       C  0.03241858  0.34505963  0.43783427    -0.26200
C2418       C  0.04743371  0.33199455  0.42231588    -0.14300
C2419       C  0.04315671  0.30694319  0.41923692     0.36300
C2420       C  0.02389089  0.29593255  0.43143638    -0.25700
C2421       C  0.00833000  0.30916813  0.44636642    -0.14900
C2422       C  0.01299552  0.33403974  0.44970786     0.37400
N2423       N  0.99754267  0.34852099  0.46434616    -0.89200
H2424       H  0.03536112  0.36424320  0.44016072     0.18500
H2425       H  0.02082613  0.27681773  0.42878113     0.18500
N2426       N  0.05747650  0.29215872  0.40356266    -0.88200
H2427       H  0.99039701  0.36214407  0.45353707     0.35900
H2428       H  0.00804910  0.35660005  0.47798426     0.41000
H2429       H  0.07076411  0.30207546  0.39482231     0.40600
H2430       H  0.04607712  0.28533464  0.38995381     0.35500
C2431       C  0.92181692  0.55292310  0.31681321    -0.26200
C2432       C  0.92206098  0.55357804  0.34218370    -0.14300
C2433       C  0.93405205  0.53518927  0.35492298     0.36300
C2434       C  0.94430198  0.51587362  0.34211801    -0.25700
C2435       C  0.94306199  0.51451876  0.31672133    -0.14900
C2436       C  0.93220131  0.53379892  0.30399905     0.37400
N2437       N  0.93180865  0.53483249  0.27812814    -0.89200
H2438       H  0.91290349  0.56711411  0.30687300     0.18500
H2439       H  0.95279549  0.50148086  0.35212171     0.18500
N2440       N  0.93518337  0.53594913  0.38089634    -0.88200
H2441       H  0.92106000  0.52081045  0.27132598     0.35900
H2442       H  0.94941838  0.53290101  0.27186532     0.41000
H2443       H  0.94534411  0.55112136  0.38592167     0.40600
H2444       H  0.94436555  0.52100059  0.38759461     0.35500
C2445       C  0.95235680  0.43768414  0.23584523    -0.26200
C2446       C  0.93926185  0.45342764  0.25079703    -0.14300
C2447       C  0.91493903  0.45825380  0.24468918     0.36300
C2448       C  0.90423265  0.44709311  0.22437332    -0.25700
C2449       C  0.91720929  0.43104555  0.20993960    -0.14900
C2450       C  0.94154658  0.42639002  0.21556757     0.37400
N2451       N  0.95502528  0.40994418  0.20085848    -0.89200
H2452       H  0.97104159  0.43389931  0.24013143     0.18500
H2453       H  0.88543110  0.45048112  0.22018324     0.18500
N2454       N  0.90065828  0.47373377  0.25949262    -0.88200
H2455       H  0.97274979  0.40858684  0.20730180     0.35900
H2456       H  0.94719487  0.39288715  0.20260457     0.41000
H2457       H  0.88584080  0.46385494  0.26561803     0.40600
H2458       H  0.89419240  0.48768626  0.24868421     0.35500
C2459       C  0.00949908  0.45429637  0.33847964    -0.26200
C2460       C  0.00183741  0.44787462  0.31492253    -0.14300
C2461       C  0.01425755  0.42925140  0.30273384     0.36300
C2462       C  0.03357417  0.41762032  0.31418843    -0.25700
C2463       C  0.04091537  0.42398434  0.33766552    -0.14900
C2464       C  0.02881944  0.44267933  0.34996466     0.37400
N2465       N  0.03544083  0.45025595  0.37406928    -0.89200
H2466       H  0.00032099  0.46840552  0.34829403     0.18500
H2467       H  0.04287287  0.40334820  0.30470499     0.18500
N2468       N  0.00757657  0.42206010  0.27865957    -0.88200
H2469       H  0.04131403  0.46813938  0.37314321     0.35900
H2470       H  0.04989809  0.44042095  0.38093042     0.41000
H2471       H  0.00313834  0.40375035  0.27885584     0.40600
H2472       H  0.02257674  0.42431966  0.26756946     0.35500
C2473       C  0.82450066  0.45263674  0.51793166    -0.26200
C2474       C  0.80563384  0.44149922  0.50468452    -0.14300
C2475       C  0.79850868  0.41785044  0.51105324     0.36300
C2476       C  0.80989812  0.40623586  0.53046353    -0.25700
C2477       C  0.82849969  0.41755740  0.54357030    -0.14900
C2478       C  0.83607908  0.44083986  0.53716299     0.37400
N2479       N  0.85559768  0.45231109  0.55019346    -0.89200
H2480       H  0.83032675  0.47065352  0.51332170     0.18500
H2481       H  0.80442072  0.38810789  0.53513484     0.18500
N2482       N  0.78017514  0.40519875  0.49762198    -0.88200
H2483       H  0.85888641  0.46951883  0.54338624     0.35900
H2484       H  0.87117490  0.44232094  0.54706151     0.41000
H2485       H  0.76656872  0.40028356  0.50961579     0.40600
H2486       H  0.78768145  0.38943643  0.49063988     0.35500
C2487       C  0.83060279  0.51427096  0.45380350    -0.26200
C2488       C  0.80649377  0.50928989  0.44710502    -0.14300
C2489       C  0.79486861  0.52498192  0.43068013     0.36300
C2490       C  0.80740438  0.54479570  0.42137046    -0.25700
C2491       C  0.83142680  0.54946366  0.42791396    -0.14900
C2492       C  0.84319767  0.53405676  0.44446038     0.37400
N2493       N  0.86789171  0.53766282  0.45194406    -0.89200
H2494       H  0.84000815  0.50255551  0.46625095     0.18500
H2495       H  0.79841581  0.55644355  0.40853276     0.18500
N2496       N  0.77035125  0.52101708  0.42323384    -0.88200
H2497       H  0.86801344  0.54075821  0.47061397     0.35900
H2498       H  0.87545076  0.55296783  0.44416605     0.41000
H2499       H  0.76991893  0.51906678  0.40442017     0.40600
H2500       H  0.76042237  0.53629937  0.42777168     0.35500
C2501       C  0.70520323  0.42251831  0.44199080    -0.26200
C2502       C  0.69728182  0.43356212  0.42074256    -0.14300
C2503       C  0.70857209  0.45498861  0.41303138     0.36300
C2504       C  0.72873942  0.46375712  0.42581646    -0.25700
C2505       C  0.73785423  0.45189235  0.44638789    -0.14900
C2506       C  0.72501309  0.43165281  0.45521165     0.37400
N2507       N  0.73214512  0.42015207  0.47730083    -0.89200
H2508       H  0.69618359  0.40626865  0.44793690     0.18500
H2509       H  0.73769140  0.47967829  0.41903490     0.18500
N2510       N  0.70052256  0.46790538  0.39203399    -0.88200
H2511       H  0.72125764  0.40514172  0.48069426     0.35900
H2512       H  0.72914806  0.43235060  0.49141523     0.41000
H2513       H  0.68498047  0.46021908  0.38440213     0.40600
H2514       H  0.71405782  0.46675693  0.37905545     0.35500
C2515       C  0.81307041  0.22706649  0.34552686    -0.26200
C2516       C  0.82914927  0.21342662  0.33185645    -0.14300
C2517       C  0.83367634  0.21999476  0.30761930     0.36300
C2518       C  0.82226689  0.24029157  0.29794119    -0.25700
C2519       C  0.80659576  0.25453386  0.31180032    -0.14900
C2520       C  0.80180637  0.24741795  0.33584829     0.37400
N2521       N  0.78603691  0.26101461  0.35090655    -0.89200
H2522       H  0.80960353  0.22213238  0.36411020     0.18500
H2523       H  0.82602973  0.24506863  0.27939500     0.18500
N2524       N  0.84990696  0.20683247  0.29238833    -0.88200
H2525       H  0.79576729  0.26674167  0.36620832     0.35900
H2526       H  0.77216705  0.24960742  0.35658881     0.41000
H2527       H  0.85755746  0.19223565  0.30129502     0.40600
H2528       H  0.86415477  0.21839182  0.28805330     0.35500
C2529       C  0.73313476  0.33664707  0.29888334    -0.26200
C2530       C  0.74721834  0.32109071  0.31308582    -0.14300
C2531       C  0.74097930  0.31788885  0.33760575     0.36300
C2532       C  0.72067482  0.32946194  0.34702591    -0.25700
C2533       C  0.70659536  0.34471799  0.33270047    -0.14900
C2534       C  0.71312250  0.34862876  0.30836279     0.37400
N2535       N  0.70041623  0.36507999  0.29293072    -0.89200
H2536       H  0.73770316  0.33968768  0.28014360     0.18500
H2537       H  0.71609235  0.32686146  0.36584398     0.18500
N2538       N  0.75554877  0.30359392  0.35333985    -0.88200
H2539       H  0.69234258  0.35500689  0.27897737     0.35900
H2540       H  0.68659483  0.37391837  0.30195238     0.41000
H2541       H  0.74461279  0.29009126  0.36057534     0.40600
H2542       H  0.76167695  0.31453969  0.36760004     0.35500
C2543       C  0.80057073  0.34061607  0.24087402    -0.26200
C2544       C  0.80811984  0.31765499  0.24840517    -0.14300
C2545       C  0.82614102  0.30594228  0.23476048     0.36300
C2546       C  0.83664518  0.31760168  0.21489218    -0.25700
C2547       C  0.82955392  0.34077529  0.20804501    -0.14900
C2548       C  0.81086748  0.35220513  0.22094247     0.37400
N2549       N  0.80212649  0.37568794  0.21467226    -0.89200
H2550       H  0.78667764  0.35000915  0.25073478     0.18500
H2551       H  0.85088071  0.30869439  0.20504888     0.18500
N2552       N  0.83401109  0.28225644  0.24091689    -0.88200
H2553       H  0.78393186  0.37381268  0.20985226     0.35900
H2554       H  0.81077584  0.38256091  0.19951330     0.41000
H2555       H  0.85257140  0.28297578  0.24439742     0.40600
H2556       H  0.83105173  0.27101247  0.22593506     0.35500
C2557       C  0.03809299  0.31040933  0.65487618    -0.26200
C2558       C  0.05335224  0.29804867  0.67099578    -0.14300
C2559       C  0.07778544  0.30514847  0.67299586     0.36300
C2560       C  0.08618830  0.32473504  0.65964099    -0.25700
C2561       C  0.07062793  0.33764216  0.64453220    -0.14900
C2562       C  0.04634645  0.33022399  0.64177697     0.37400
N2563       N  0.02945409  0.34266461  0.62650956    -0.89200
H2564       H  0.01918860  0.30551419  0.65332367     0.18500
H2565       H  0.10493340  0.33020197  0.66139077     0.18500
N2566       N  0.09407795  0.29281568  0.68880626    -0.88200
H2567       H  0.02405164  0.33077073  0.61273339     0.35900
H2568       H  0.03732965  0.35747740  0.61811467     0.41000
H2569       H  0.10105533  0.30529227  0.70130535     0.40600
H2570       H  0.10838462  0.28636737  0.67848302     0.35500
C2571       C  0.97472663  0.58086043  0.68711589    -0.26200
C2572       C  0.98886947  0.56441675  0.67404218    -0.14300
C2573       C  0.98416224  0.56139891  0.64887836     0.36300
C2574       C  0.96604251  0.57483077  0.63772907    -0.25700
C2575       C  0.95224979  0.59126889  0.65084241    -0.14900
C2576       C  0.95661867  0.59437987  0.67589183     0.37400
N2577       N  0.94319863  0.61101329  0.69047944    -0.89200
H2578       H  0.97779203  0.58343223  0.70634098     0.18500
H2579       H  0.96270018  0.57247763  0.61850435     0.18500
N2580       N  0.99765577  0.54539970  0.63386726    -0.88200
H2581       H  0.93034790  0.62024950  0.68032731     0.35900
H2582       H  0.95532961  0.62399192  0.69713782     0.41000
H2583       H  0.99490515  0.52775946  0.63966777     0.40600
H2584       H  0.01594412  0.54996144  0.63515248     0.35500
C2585       C  0.07472774  0.49752164  0.68191090    -0.26200
C2586       C  0.04968014  0.49980533  0.67855476    -0.14300
C2587       C  0.03703432  0.48246362  0.66453493     0.36300
C2588       C  0.04986792  0.46380823  0.65343231    -0.25700
C2589       C  0.07496066  0.46212748  0.65611145    -0.14900
C2590       C  0.08754611  0.47896147  0.67084537     0.37400
N2591       N  0.11317551  0.47787520  0.67490355    -0.89200
H2592       H  0.08462583  0.51065447  0.69273903     0.18500
H2593       H  0.04037526  0.45080099  0.64209570     0.18500
N2594       N  0.01130089  0.48382814  0.66159632    -0.88200
H2595       H  0.12093124  0.49296416  0.66680345     0.35900
H2596       H  0.12074434  0.46272585  0.66680400     0.41000
H2597       H  0.00364631  0.48132608  0.67860554     0.40600
H2598       H  0.00488592  0.46979251  0.65055947     0.35500
C2599       C  0.04947395  0.59162768  0.77417825    -0.26200
C2600       C  0.07344294  0.58557813  0.77950052    -0.14300
C2601       C  0.08465861  0.56696886  0.76635909     0.36300
C2602       C  0.07197413  0.55563989  0.74748326    -0.25700
C2603       C  0.04824532  0.56224952  0.74130630    -0.14900
C2604       C  0.03660019  0.57998670  0.75538665     0.37400
N2605       N  0.01183608  0.58606480  0.75073198    -0.89200
H2606       H  0.04085987  0.60559509  0.78471391     0.18500
H2607       H  0.08113844  0.54181347  0.73725348     0.18500
N2608       N  0.10875175  0.55898647  0.77165863    -0.88200
H2609       H  0.00618624  0.59961639  0.76255885     0.35900
H2610       H  0.00136175  0.57085766  0.75449042     0.41000
H2611       H  0.11637941  0.56810589  0.78643172     0.40600
H2612       H  0.11942186  0.56296153  0.75670623     0.35500
C2613       C  0.25847775  0.55565022  0.56761828    -0.26200
C2614       C  0.24970312  0.56650175  0.54634863    -0.14300
C2615       C  0.26202126  0.58704578  0.53755531     0.36300
C2616       C  0.28132754  0.59707319  0.55086895    -0.25700
C2617       C  0.28916913  0.58683718  0.57259156    -0.14900
C2618       C  0.27808399  0.56539549  0.58069918     0.37400
N2619       N  0.28604092  0.55314751  0.60213421    -0.89200
H2620       H  0.24984417  0.53959849  0.57451922     0.18500
H2621       H  0.29004955  0.61327079  0.54437685     0.18500
N2622       N  0.25504090  0.59803137  0.51523194    -0.88200
H2623       H  0.27215659  0.55410797  0.61475290     0.35900
H2624       H  0.30113025  0.56146368  0.61000906     0.41000
H2625       H  0.26990433  0.59792411  0.50375234     0.40600
H2626       H  0.25055939  0.61594979  0.51878583     0.35500
C2627       C  0.16518755  0.49497249  0.52957624    -0.26200
C2628       C  0.18197590  0.50765507  0.54417143    -0.14300
C2629       C  0.18564605  0.50019399  0.56835620     0.36300
C2630       C  0.17313240  0.47995161  0.57693188    -0.25700
C2631       C  0.15649797  0.46739302  0.56226321    -0.14900
C2632       C  0.15217665  0.47522916  0.53835571     0.37400
N2633       N  0.13458788  0.46395264  0.52260325    -0.89200
H2634       H  0.16193510  0.50048308  0.51109169     0.18500
H2635       H  0.17586473  0.47422948  0.59544970     0.18500
N2636       N  0.20146987  0.51347026  0.58438470    -0.88200
H2637       H  0.12134786  0.47671627  0.51876789     0.35900
H2638       H  0.12578204  0.44964363  0.53093371     0.41000
H2639       H  0.20238626  0.50531469  0.60135121     0.40600
H2640       H  0.19384536  0.53041001  0.58714440     0.35500
C2641       C  0.25118769  0.70540438  0.65775703    -0.26200
C2642       C  0.24858446  0.70393864  0.68296302    -0.14300
C2643       C  0.26556014  0.69049553  0.69642485     0.36300
C2644       C  0.28388442  0.67798960  0.68432129    -0.25700
C2645       C  0.28617427  0.67903828  0.65909454    -0.14900
C2646       C  0.26970744  0.69324773  0.64566803     0.37400
N2647       N  0.27129339  0.69604094  0.61990118    -0.89200
H2648       H  0.23844389  0.71577462  0.64720328     0.18500
H2649       H  0.29656528  0.66730742  0.69463162     0.18500
N2650       N  0.26433295  0.68976585  0.72236549    -0.88200
H2651       H  0.25611864  0.68773336  0.61209280     0.35900
H2652       H  0.28642822  0.68757257  0.61283554     0.41000
H2653       H  0.26756740  0.70721883  0.72884701     0.40600
H2654       H  0.27804772  0.67901637  0.72947636     0.35500
C2655       C  0.18841469  0.67726352  0.74753421    -0.26200
C2656       C  0.18550155  0.70229347  0.74521463    -0.14300
C2657       C  0.17069507  0.71453750  0.76194004     0.36300
C2658       C  0.15861234  0.70140459  0.77989045    -0.25700
C2659       C  0.16115633  0.67639335  0.78169748    -0.14900
C2660       C  0.17640789  0.66422892  0.76555899     0.37400
N2661       N  0.17936271  0.63862530  0.76738829    -0.89200
H2662       H  0.19970937  0.66766825  0.73489543     0.18500
H2663       H  0.14700710  0.71066341  0.79250792     0.18500
N2664       N  0.16806159  0.74021989  0.76081194    -0.88200
H2665       H  0.19100771  0.63233586  0.75404131     0.35900
H2666       H  0.18769496  0.63516152  0.78403242     0.41000
H2667       H  0.18492159  0.74792947  0.76469833     0.40600
H2668       H  0.15635545  0.74630534  0.77420210     0.35500
C2669       C  0.20008721  0.78290915  0.67029359    -0.26200
C2670       C  0.18592337  0.76718175  0.68415633    -0.14300
C2671       C  0.16100064  0.77208770  0.68662351     0.36300
C2672       C  0.15104528  0.79234163  0.67520553    -0.25700
C2673       C  0.16518334  0.80774848  0.66112701    -0.14900
C2674       C  0.19011651  0.80300895  0.65874530     0.37400
N2675       N  0.20575943  0.81768371  0.64430466    -0.89200
H2676       H  0.21917519  0.77950614  0.66822465     0.18500
H2677       H  0.13195031  0.79595010  0.67689481     0.18500
N2678       N  0.14566751  0.75624563  0.70013353    -0.88200
H2679       H  0.21820656  0.82604160  0.65599412     0.35900
H2680       H  0.19643570  0.83133512  0.63546542     0.41000
H2681       H  0.14488440  0.73977962  0.69088759     0.40600
H2682       H  0.12802333  0.76273500  0.70057085     0.35500
C2683       C  0.15196977  0.58436442  0.45767240    -0.26200
C2684       C  0.16671593  0.60065990  0.44544341    -0.14300
C2685       C  0.19120649  0.60291883  0.45212699     0.36300
C2686       C  0.20040145  0.58903094  0.47103466    -0.25700
C2687       C  0.18566402  0.57279945  0.48377948    -0.14900
C2688       C  0.16102023  0.57043478  0.47662318     0.37400
N2689       N  0.14442859  0.55464767  0.48841486    -0.89200
H2690       H  0.13310365  0.58266595  0.45257794     0.18500
H2691       H  0.21926706  0.59120290  0.47587290     0.18500
N2692       N  0.20695616  0.61961935  0.44041248    -0.88200
H2693       H  0.14390819  0.55907466  0.50679996     0.35900
H2694       H  0.15011869  0.53691074  0.48610543     0.41000
H2695       H  0.19965965  0.63684377  0.44207635     0.40600
H2696       H  0.20769256  0.61516108  0.42205835     0.35500
C2697       C  0.07312412  0.72700907  0.47032260    -0.26200
C2698       C  0.05549329  0.71390384  0.48292299    -0.14300
C2699       C  0.05066876  0.68980451  0.47568163     0.36300
C2700       C  0.06379974  0.67934508  0.45686961    -0.25700
C2701       C  0.08169484  0.69227885  0.44483033    -0.14900
C2702       C  0.08619726  0.71658485  0.45136141     0.37400
N2703       N  0.10421239  0.73103305  0.43968788    -0.89200
H2704       H  0.07703146  0.74551565  0.47534593     0.18500
H2705       H  0.06019499  0.66077871  0.45179530     0.18500
N2706       N  0.03289391  0.67550264  0.48764574    -0.88200
H2707       H  0.09531607  0.74502152  0.43083709     0.35900
H2708       H  0.11338395  0.72137657  0.42645554     0.41000
H2709       H  0.04135934  0.66030209  0.49472187     0.40600
H2710       H  0.02015291  0.66974236  0.47476540     0.35500
C2711       C  0.98606799  0.68753000  0.53560353    -0.26200
C2712       C  0.99166786  0.71082660  0.54428853    -0.14300
C2713       C  0.97769852  0.72043057  0.56336142     0.36300
C2714       C  0.95957402  0.70615732  0.57385644    -0.25700
C2715       C  0.95464026  0.68278812  0.56542403    -0.14900
C2716       C  0.96773943  0.67353307  0.54571233     0.37400
N2717       N  0.96318710  0.64999787  0.53558993    -0.89200
H2718       H  0.99618675  0.67975591  0.52089644     0.18500
H2719       H  0.94907528  0.71330886  0.58865177     0.18500
N2720       N  0.98167312  0.74459408  0.57194979    -0.88200
H2721       H  0.95722577  0.65229778  0.51776911     0.35900
H2722       H  0.94939652  0.64095141  0.54454066     0.41000
H2723       H  0.97027788  0.74857016  0.58636657     0.40600
H2724       H  0.97691063  0.75622554  0.55793901     0.35500
C2725       C  0.07197091  0.78918428  0.53583161    -0.26200
C2726       C  0.05324758  0.77645124  0.54732033    -0.14300
C2727       C  0.04618824  0.78413249  0.57070153     0.36300
C2728       C  0.05829377  0.80333546  0.58218624    -0.25700
C2729       C  0.07735307  0.81528931  0.57097974    -0.14900
C2730       C  0.08407817  0.80849109  0.54743707     0.37400
N2731       N  0.10328584  0.82108432  0.53554980    -0.89200
H2732       H  0.07750271  0.78388256  0.51785415     0.18500
H2733       H  0.05313778  0.80860744  0.60031195     0.18500
N2734       N  0.02714785  0.77226185  0.58330405    -0.88200
H2735       H  0.10585056  0.81407976  0.51818047     0.35900
H2736       H  0.11921304  0.81793139  0.54525278     0.41000
H2737       H  0.01398923  0.78501520  0.58735686     0.40600
H2738       H  0.03412833  0.76573752  0.59960438     0.35500
C2739       C  0.92346668  0.16497425  0.68477450    -0.26200
C2740       C  0.91630403  0.17175004  0.66148604    -0.14300
C2741       C  0.93073939  0.18805270  0.64829931     0.36300
C2742       C  0.95146427  0.19789814  0.65920719    -0.25700
C2743       C  0.95837826  0.19166322  0.68283166    -0.14900
C2744       C  0.94435370  0.17467042  0.69553502     0.37400
N2745       N  0.95063773  0.16787422  0.71972340    -0.89200
H2746       H  0.91283691  0.15190364  0.69458086     0.18500
H2747       H  0.96190564  0.21104777  0.64930950     0.18500
N2748       N  0.92477473  0.19533393  0.62406946    -0.88200
H2749       H  0.95286042  0.14921268  0.72001725     0.35900
H2750       H  0.93624362  0.17219496  0.73099569     0.41000
H2751       H  0.90851763  0.18778688  0.61798878     0.40600
H2752       H  0.93824857  0.18887628  0.61269301     0.35500
C2753       C  0.66235427  0.26624519  0.69244812    -0.26200
C2754       C  0.68622007  0.26026428  0.68638989    -0.14300
C2755       C  0.69883696  0.27549583  0.67024651     0.36300
C2756       C  0.68683350  0.29508072  0.65951890    -0.25700
C2757       C  0.66272798  0.30012199  0.66484167    -0.14900
C2758       C  0.65062868  0.28584771  0.68193629     0.37400
N2759       N  0.62630495  0.29079520  0.68880455    -0.89200
H2760       H  0.65234869  0.25527906  0.70504428     0.18500
H2761       H  0.69613753  0.30620611  0.64652419     0.18500
N2762       N  0.72367857  0.27109798  0.66463402    -0.88200
H2763       H  0.61518747  0.28947937  0.67348479     0.35900
H2764       H  0.62563151  0.30845318  0.69538961     0.41000
H2765       H  0.73375375  0.27396493  0.68048090     0.40600
H2766       H  0.72998768  0.28357295  0.65207541     0.35500
C2767       C  0.66645522  0.20809613  0.75906768    -0.26200
C2768       C  0.68214097  0.19392502  0.74509189    -0.14300
C2769       C  0.68491699  0.16929182  0.75132191     0.36300
C2770       C  0.67304267  0.16003125  0.77147756    -0.25700
C2771       C  0.65816689  0.17455818  0.78560586    -0.14900
C2772       C  0.65446341  0.19859156  0.77908039     0.37400
N2773       N  0.63826162  0.21328547  0.79262569    -0.89200
H2774       H  0.66352269  0.22681295  0.75464162     0.18500
H2775       H  0.67543641  0.14129029  0.77619216     0.18500
N2776       N  0.69914574  0.15298492  0.73747056    -0.88200
H2777       H  0.62480673  0.21933436  0.78082694     0.35900
H2778       H  0.64787096  0.22828975  0.79909722     0.41000
H2779       H  0.71711720  0.15828346  0.73907410     0.40600
H2780       H  0.69356075  0.15362126  0.71937735     0.35500
C2781       C  0.75757832  0.20600372  0.66387506    -0.26200
C2782       C  0.74972799  0.19766219  0.68649515    -0.14300
C2783       C  0.76334932  0.17952795  0.69808648     0.36300
C2784       C  0.78292858  0.16900095  0.68622213    -0.25700
C2785       C  0.78970096  0.17646895  0.66315345    -0.14900
C2786       C  0.77746569  0.19585799  0.65220651     0.37400
N2787       N  0.78435983  0.20542068  0.62915987    -0.89200
H2788       H  0.74793386  0.22026819  0.65478289     0.18500
H2789       H  0.79260625  0.15446980  0.69487314     0.18500
N2790       N  0.75768246  0.17173721  0.72196174    -0.88200
H2791       H  0.78952384  0.22335805  0.63195541     0.35900
H2792       H  0.79944413  0.19671930  0.62224319     0.41000
H2793       H  0.77271466  0.17506667  0.73307523     0.40600
H2794       H  0.75488433  0.15311645  0.72130631     0.35500
C2795       C  0.45078351  0.19610294  0.58145212    -0.26200
C2796       C  0.44594705  0.17171886  0.57710623    -0.14300
C2797       C  0.45983305  0.15883515  0.56034159     0.36300
C2798       C  0.47902233  0.17047581  0.54876680    -0.25700
C2799       C  0.48461145  0.19477752  0.55369447    -0.14900
C2800       C  0.46990625  0.20777261  0.56991326     0.37400
N2801       N  0.47421821  0.23278725  0.57480444    -0.89200
H2802       H  0.43995127  0.20598952  0.59429820     0.18500
H2803       H  0.49001188  0.16027155  0.53633936     0.18500
N2804       N  0.45468457  0.13384511  0.55564238    -0.88200
H2805       H  0.47734321  0.23490370  0.59337515     0.35900
H2806       H  0.45859698  0.24225201  0.57028661     0.41000
H2807       H  0.43752054  0.13275518  0.54770053     0.40600
H2808       H  0.46672639  0.12685852  0.54301910     0.35500
C2809       C  0.58295149  0.18431643  0.46626112    -0.26200
C2810       C  0.56989273  0.16638986  0.45388219    -0.14300
C2811       C  0.54607617  0.16087862  0.46096574     0.36300
C2812       C  0.53598436  0.17356317  0.48031898    -0.25700
C2813       C  0.54906561  0.19153345  0.49298989    -0.14900
C2814       C  0.57294395  0.19675539  0.48580176     0.37400
N2815       N  0.58748759  0.21409362  0.49862569    -0.89200
H2816       H  0.60133902  0.18828449  0.46103701     0.18500
H2817       H  0.51772102  0.16909326  0.48552823     0.18500
N2818       N  0.53185941  0.14223079  0.44947233    -0.88200
H2819       H  0.59295329  0.22726423  0.48638552     0.35900
H2820       H  0.60289869  0.20542914  0.50511166     0.41000
H2821       H  0.54119146  0.13376266  0.43554826     0.40600
H2822       H  0.51684153  0.15036702  0.44150165     0.35500
C2823       C  0.57505272  0.29170202  0.55450471    -0.26200
C2824       C  0.57073913  0.29559951  0.57912290    -0.14300
C2825       C  0.55501349  0.28025278  0.59162253     0.36300
C2826       C  0.54384561  0.26109073  0.57916712    -0.25700
C2827       C  0.54841574  0.25669975  0.55454590    -0.14900
C2828       C  0.56402521  0.27241691  0.54199206     0.37400
N2829       N  0.56851236  0.26893576  0.51665586    -0.89200
H2830       H  0.58722348  0.30369644  0.54512388     0.18500
H2831       H  0.53196131  0.24916820  0.58897203     0.18500
N2832       N  0.55040228  0.28428068  0.61686650    -0.88200
H2833       H  0.58069450  0.28184276  0.51037514     0.35900
H2834       H  0.55226570  0.27174207  0.50737687     0.41000
H2835       H  0.56642890  0.28119297  0.62640838     0.40600
H2836       H  0.53785752  0.27174981  0.62320430     0.35500
C2837       C  0.68890974  0.07613075  0.48440953    -0.26200
C2838       C  0.67995638  0.05460644  0.49440425    -0.14300
C2839       C  0.65901070  0.04395143  0.48386509     0.36300
C2840       C  0.64747128  0.05505945  0.46424257    -0.25700
C2841       C  0.65624725  0.07667754  0.45487449    -0.14900
C2842       C  0.67717996  0.08731370  0.46489483     0.37400
N2843       N  0.68636994  0.10945744  0.45519175    -0.89200
H2844       H  0.70490611  0.08461044  0.49206106     0.18500
H2845       H  0.63128247  0.04697595  0.45651378     0.18500
N2846       N  0.64918337  0.02194255  0.49295223    -0.88200
H2847       H  0.70212656  0.11478594  0.46434379     0.35900
H2848       H  0.67360913  0.12282871  0.45843531     0.41000
H2849       H  0.64876023  0.00931968  0.47884505     0.40600
H2850       H  0.63143247  0.02512553  0.49824467     0.35500
C2851       C  0.68421483  0.96074841  0.58744191    -0.26200
C2852       C  0.65904218  0.95852350  0.58664723    -0.14300
C2853       C  0.64552648  0.97471240  0.57248267     0.36300
C2854       C  0.65734791  0.99291721  0.55974417    -0.25700
C2855       C  0.68258938  0.99562749  0.56090461    -0.14900
C2856       C  0.69608022  0.97906781  0.57471755     0.37400
N2857       N  0.72184445  0.98033373  0.57548502    -0.89200
H2858       H  0.69471039  0.94820284  0.59806822     0.18500
H2859       H  0.64659324  0.00529627  0.54918590     0.18500
N2860       N  0.61979299  0.97292153  0.57057547    -0.88200
H2861       H  0.72854140  0.96407183  0.56881303     0.35900
H2862       H  0.72722642  0.98194108  0.59359515     0.41000
H2863       H  0.61530143  0.95568945  0.56421212     0.40600
H2864       H  0.61247661  0.97512560  0.58776979     0.35500
C2865       C  0.74807395  0.08391255  0.55044853    -0.26200
C2866       C  0.74575924  0.05910158  0.55500327    -0.14300
C2867       C  0.76389859  0.04783031  0.56910909     0.36300
C2868       C  0.78305398  0.06148027  0.57870228    -0.25700
C2869       C  0.78481210  0.08632114  0.57477910    -0.14900
C2870       C  0.76728768  0.09762262  0.56001953     0.37400
N2871       N  0.76817822  0.12288649  0.55454790    -0.89200
H2872       H  0.73456982  0.09299333  0.53962454     0.18500
H2873       H  0.79651655  0.05267035  0.58982238     0.18500
N2874       N  0.76357156  0.02261602  0.57407180    -0.88200
H2875       H  0.76972822  0.12449236  0.53580053     0.35900
H2876       H  0.78346761  0.13122128  0.56197383     0.41000
H2877       H  0.76197552  0.01311718  0.55774775     0.40600
H2878       H  0.74879135  0.01894053  0.58499645     0.35500
C2879       C  0.47413307  0.08007853  0.70407719    -0.26200
C2880       C  0.48785288  0.06269985  0.69171852    -0.14300
C2881       C  0.48170818  0.05736035  0.66733516     0.36300
C2882       C  0.46225958  0.06903415  0.65612398    -0.25700
C2883       C  0.44880693  0.08626040  0.66853913    -0.14900
C2884       C  0.45477156  0.09192789  0.69273092     0.37400
N2885       N  0.44165443  0.11026275  0.70538496    -0.89200
H2886       H  0.47851950  0.08458770  0.72268756     0.18500
H2887       H  0.45788535  0.06493543  0.63739304     0.18500
N2888       N  0.49548511  0.04065763  0.65348464    -0.88200
H2889       H  0.42400274  0.10402891  0.70762008     0.35900
H2890       H  0.44883145  0.11291855  0.72275854     0.41000
H2891       H  0.50237482  0.04966517  0.63849516     0.40600
H2892       H  0.48383140  0.02708195  0.64718686     0.35500
C2893       C  0.56914161  0.05406978  0.76855672    -0.26200
C2894       C  0.54687955  0.06246993  0.75959872    -0.14300
C2895       C  0.53604966  0.08230093  0.77135852     0.36300
C2896       C  0.54812371  0.09387352  0.79063055    -0.25700
C2897       C  0.57089655  0.08621835  0.79843232    -0.14900
C2898       C  0.58129964  0.06568352  0.78767305     0.37400
N2899       N  0.60446541  0.05660111  0.79500268    -0.89200
H2900       H  0.57777483  0.03876340  0.76015395     0.18500
H2901       H  0.54010342  0.10958262  0.79894390     0.18500
N2902       N  0.51302239  0.09110220  0.76369020    -0.88200
H2903       H  0.60177485  0.03923303  0.80164765     0.35900
H2904       H  0.61205505  0.06664987  0.80918053     0.41000
H2905       H  0.51509407  0.10912147  0.75876109     0.40600
H2906       H  0.50136801  0.09041304  0.77842162     0.35500
C2907       C  0.56961113  0.98839062  0.71059533    -0.26200
C2908       C  0.55077338  0.99899189  0.69709277    -0.14300
C2909       C  0.54472928  0.98880021  0.67428972     0.36300
C2910       C  0.55752136  0.96895635  0.66551574    -0.25700
C2911       C  0.57638184  0.95878863  0.67885789    -0.14900
C2912       C  0.58247493  0.96853819  0.70180139     0.37400
N2913       N  0.60155609  0.95894693  0.71657775    -0.89200
H2914       H  0.57466720  0.99562952  0.72817225     0.18500
H2915       H  0.55291681  0.96161183  0.64784072     0.18500
N2916       N  0.52588180  0.99858181  0.65962398    -0.88200
H2917       H  0.61494956  0.97220024  0.71822604     0.35900
H2918       H  0.60955343  0.94402333  0.70847452     0.41000
H2919       H  0.51309082  0.98502115  0.65628053     0.40600
H2920       H  0.53325298  0.00365165  0.64307742     0.35500
C2921       C  0.05104837  0.09276194  0.42547586    -0.26200
C2922       C  0.06925069  0.08071787  0.41277145    -0.14300
C2923       C  0.07624112  0.05741774  0.42008994     0.36300
C2924       C  0.06439032  0.04654334  0.43934896    -0.25700
C2925       C  0.04563521  0.05813070  0.45148750    -0.14900
C2926       C  0.03899690  0.08157043  0.44474418     0.37400
N2927       N  0.01922972  0.09326119  0.45651081    -0.89200
H2928       H  0.04604560  0.11077119  0.42007501     0.18500
H2929       H  0.06907294  0.02825438  0.44413163     0.18500
N2930       N  0.09486025  0.04404399  0.40817671    -0.88200
H2931       H  0.01624026  0.11020212  0.44898671     0.35900
H2932       H  0.02427070  0.09619084  0.47456081     0.41000
H2933       H  0.10194104  0.05327355  0.39346748     0.40600
H2934       H  0.10898678  0.04181486  0.42059428     0.35500
C2935       C  0.93264899  0.04552770  0.56952006    -0.26200
C2936       C  0.94777300  0.05731757  0.55314264    -0.14300
C2937       C  0.94508818  0.08208443  0.54892549     0.36300
C2938       C  0.92636182  0.09443437  0.56038153    -0.25700
C2939       C  0.91061245  0.08234623  0.57593178    -0.14900
C2940       C  0.91427363  0.05786831  0.58114700     0.37400
N2941       N  0.89958576  0.04522372  0.59810481    -0.89200
H2942       H  0.93457083  0.02637140  0.57253293     0.18500
H2943       H  0.92381542  0.11344705  0.55705233     0.18500
N2944       N  0.96037192  0.09413979  0.53194769    -0.88200
H2945       H  0.88166180  0.04576807  0.59214962     0.35900
H2946       H  0.90085121  0.05411283  0.61479303     0.41000
H2947       H  0.97791003  0.09403179  0.53904241     0.40600
H2948       H  0.95549228  0.11220856  0.53037501     0.35500
C2949       C  0.07119722  0.96594458  0.54660939    -0.26200
C2950       C  0.05201343  0.97683499  0.55873985    -0.14300
C2951       C  0.04777926  0.97115937  0.58323442     0.36300
C2952       C  0.06174382  0.95332218  0.59435657    -0.25700
C2953       C  0.07941732  0.94091911  0.58134855    -0.14900
C2954       C  0.08464576  0.94782823  0.55750339     0.37400
N2955       N  0.10276673  0.93595625  0.54362158    -0.89200
H2956       H  0.07415477  0.96979087  0.52766165     0.18500
H2957       H  0.05809276  0.94836859  0.61289017     0.18500
N2958       N  0.02872038  0.98212072  0.59677828    -0.88200
H2959       H  0.09826929  0.91771556  0.54219326     0.35900
H2960       H  0.11922284  0.93754351  0.55290482     0.41000
H2961       H  0.02010885  0.99538426  0.58663125     0.40600
H2962       H  0.03665695  0.99101427  0.61158248     0.35500
C2963       C  0.94019263  0.07451688  0.40340998    -0.26200
C2964       C  0.91598505  0.08026885  0.40694772    -0.14300
C2965       C  0.90145473  0.06542775  0.42168413     0.36300
C2966       C  0.91191473  0.04579887  0.43343436    -0.25700
C2967       C  0.93640511  0.04044080  0.43064080    -0.14900
C2968       C  0.95070263  0.05491731  0.41526255     0.37400
N2969       N  0.97611255  0.05057953  0.41275577    -0.89200
H2970       H  0.95106529  0.08583294  0.39186138     0.18500
H2971       H  0.90093868  0.03503646  0.44540506     0.18500
N2972       N  0.87633261  0.07010191  0.42579777    -0.88200
H2973       H  0.98435387  0.05448640  0.42942147     0.35900
H2974       H  0.98372102  0.06243888  0.40031865     0.41000
H2975       H  0.87045449  0.08554103  0.41696043     0.40600
H2976       H  0.86645213  0.05567954  0.41845117     0.35500
C2977       C  0.82711873  0.45944978  0.69364699    -0.26200
C2978       C  0.80796479  0.44894491  0.70631778    -0.14300
C2979       C  0.80191685  0.42462602  0.70208382     0.36300
C2980       C  0.81415729  0.41170866  0.68405988    -0.25700
C2981       C  0.83200317  0.42286918  0.67014354    -0.14900
C2982       C  0.83919484  0.44665293  0.67551868     0.37400
N2983       N  0.85840663  0.45777486  0.66226761    -0.89200
H2984       H  0.83140594  0.47830155  0.69665694     0.18500
H2985       H  0.80925393  0.39315259  0.68023860     0.18500
N2986       N  0.78223647  0.41376898  0.71483055    -0.88200
H2987       H  0.86171698  0.47522191  0.66872794     0.35900
H2988       H  0.85262516  0.45946905  0.64431631     0.41000
H2989       H  0.78710486  0.41324660  0.73312843     0.40600
H2990       H  0.77972262  0.39591898  0.70920770     0.35500
C2991       C  0.66738166  0.45749690  0.68423219    -0.26200
C2992       C  0.68815695  0.46674601  0.67314289    -0.14300
C2993       C  0.69619823  0.45616562  0.65136565     0.36300
C2994       C  0.68419312  0.43572365  0.64212589    -0.25700
C2995       C  0.66397076  0.42617154  0.65376632    -0.14900
C2996       C  0.65518421  0.43742623  0.67485757     0.37400
N2997       N  0.63409707  0.42903348  0.68731134    -0.89200
H2998       H  0.66098490  0.46527740  0.70098592     0.18500
H2999       H  0.69033737  0.42735647  0.62555355     0.18500
N3000       N  0.71653124  0.46605704  0.63882407    -0.88200
H3001       H  0.63966386  0.42303786  0.70433829     0.35900
H3002       H  0.62589599  0.41438553  0.67858801     0.41000
H3003       H  0.71178968  0.48329833  0.63311233     0.40600
H3004       H  0.72009635  0.45604185  0.62320101     0.35500
C3005       C  0.79961506  0.58661250  0.67954009    -0.26200
C3006       C  0.78825630  0.56613356  0.66936411    -0.14300
C3007       C  0.79565217  0.55793127  0.64635755     0.36300
C3008       C  0.81456694  0.56978375  0.63448929    -0.25700
C3009       C  0.82641718  0.58946887  0.64535188    -0.14900
C3010       C  0.81866778  0.59812728  0.66782736     0.37400
N3011       N  0.83032137  0.61855277  0.67885892    -0.89200
H3012       H  0.79452360  0.59316805  0.69725227     0.18500
H3013       H  0.82020909  0.56346363  0.61686306     0.18500
N3014       N  0.78421157  0.53753232  0.63505716    -0.88200
H3015       H  0.83708640  0.61332004  0.69571944     0.35900
H3016       H  0.81730316  0.63176330  0.68171729     0.41000
H3017       H  0.79739573  0.52457246  0.63181672     0.40600
H3018       H  0.77720050  0.54296298  0.61836242     0.35500
C3019       C  0.69320705  0.59930405  0.81288839    -0.26200
C3020       C  0.66973955  0.59179612  0.81817438    -0.14300
C3021       C  0.65779333  0.57514085  0.80295701     0.36300
C3022       C  0.66971141  0.56597169  0.78270134    -0.25700
C3023       C  0.69357416  0.57283430  0.77746280    -0.14900
C3024       C  0.70532132  0.59009592  0.79265407     0.37400
N3025       N  0.72957322  0.59792130  0.78788856    -0.89200
H3026       H  0.70199092  0.61250580  0.82455487     0.18500
H3027       H  0.66050379  0.55269340  0.77148000     0.18500
N3028       N  0.63359695  0.56754435  0.80830614    -0.88200
H3029       H  0.73570439  0.60992765  0.80126529     0.35900
H3030       H  0.72919390  0.60752250  0.77169872     0.41000
H3031       H  0.63415514  0.55831289  0.82470762     0.40600
H3032       H  0.62724612  0.55529112  0.79526023     0.35500
C3033       C  0.47415848  0.57291723  0.19366929    -0.26200
C3034       C  0.48549564  0.55247224  0.18388678    -0.14300
C3035       C  0.47727965  0.54349623  0.16120162     0.36300
C3036       C  0.45823011  0.55488515  0.14911124    -0.25700
C3037       C  0.44739176  0.57544002  0.15876708    -0.14900
C3038       C  0.45540090  0.58457885  0.18139495     0.37400
N3039       N  0.44540065  0.60585102  0.19222704    -0.89200
H3040       H  0.48011096  0.58031507  0.21090587     0.18500
H3041       H  0.45225024  0.54799832  0.13165618     0.18500
N3042       N  0.48836958  0.52312505  0.14999455    -0.88200
H3043       H  0.43724229  0.60073730  0.20837834     0.35900
H3044       H  0.43189306  0.61333747  0.18145047     0.41000
H3045       H  0.49493398  0.52845144  0.13319173     0.40600
H3046       H  0.47511647  0.50992477  0.14703355     0.35500
C3047       C  0.53826060  0.47704941  0.17314149    -0.26200
C3048       C  0.55101831  0.49297708  0.18856280    -0.14300
C3049       C  0.57635773  0.49018167  0.19117827     0.36300
C3050       C  0.58804756  0.47192091  0.17842096    -0.25700
C3051       C  0.57519989  0.45629426  0.16300302    -0.14900
C3052       C  0.55005333  0.45892030  0.16033551     0.37400
N3053       N  0.53621483  0.44392713  0.14414808    -0.89200
H3054       H  0.51894506  0.47887803  0.17071193     0.18500
H3055       H  0.60742822  0.47010002  0.18026968     0.18500
N3056       N  0.59096616  0.50607110  0.20570951    -0.88200
H3057       H  0.53783989  0.42605823  0.14961672     0.35900
H3058       H  0.54340035  0.44551395  0.12681950     0.41000
H3059       H  0.58606919  0.50424071  0.22375645     0.40600
H3060       H  0.58808999  0.52376700  0.20012683     0.35500
C3061       C  0.45940437  0.68554841  0.08231842    -0.26200
C3062       C  0.44977555  0.66486295  0.07125397    -0.14300
C3063       C  0.45980715  0.65624640  0.04960473     0.36300
C3064       C  0.47976043  0.66796626  0.03984639    -0.25700
C3065       C  0.49022067  0.68832174  0.05123809    -0.14900
C3066       C  0.47940663  0.69745108  0.07249160     0.37400
N3067       N  0.48872056  0.71852529  0.08444589    -0.89200
H3068       H  0.45160780  0.69222139  0.09893906     0.18500
H3069       H  0.48723720  0.66075615  0.02333418     0.18500
N3070       N  0.45027819  0.63537432  0.03741250    -0.88200
H3071       H  0.49343376  0.71392688  0.10216661     0.35900
H3072       H  0.47494549  0.73124970  0.08520819     0.41000
H3073       H  0.43211745  0.63845298  0.03330875     0.40600
H3074       H  0.45129873  0.62073709  0.04912314     0.35500
C3075       C  0.58767803  0.77907196  0.05736996    -0.26200
C3076       C  0.57387520  0.79298273  0.07313269    -0.14300
C3077       C  0.54972332  0.78656489  0.07746250     0.36300
C3078       C  0.53993734  0.76589252  0.06618891    -0.25700
C3079       C  0.55390552  0.75136867  0.05080435    -0.14900
C3080       C  0.57801788  0.75839395  0.04619830     0.37400
N3081       N  0.59312616  0.74429223  0.03084035    -0.89200
H3082       H  0.60635488  0.78393160  0.05428114     0.18500
H3083       H  0.52138673  0.76097456  0.06975283     0.18500
N3084       N  0.53541235  0.80086086  0.09356601    -0.88200
H3085       H  0.60818951  0.73894283  0.04091791     0.35900
H3086       H  0.59910595  0.75525469  0.01679594     0.41000
H3087       H  0.54299280  0.79955819  0.11088432     0.40600
H3088       H  0.51791900  0.79383823  0.09464046     0.35500
C3089       C  0.56737088  0.69911399  0.97439753    -0.26200
C3090       C  0.55504431  0.68474324  0.99110781    -0.14300
C3091       C  0.55389040  0.65950945  0.98712027     0.36300
C3092       C  0.56448059  0.64956719  0.96655107    -0.25700
C3093       C  0.57664080  0.66400674  0.94986878    -0.14900
C3094       C  0.57836845  0.68913082  0.95400911     0.37400
N3095       N  0.59137589  0.70503359  0.93829883    -0.89200
H3096       H  0.56859715  0.71840698  0.97719298     0.18500
H3097       H  0.56373936  0.63023820  0.96381457     0.18500
N3098       N  0.54311735  0.64332559  0.00400000    -0.88200
H3099       H  0.60560920  0.71261181  0.94835610     0.35900
H3100       H  0.59922568  0.69588126  0.92390910     0.41000
H3101       H  0.52460209  0.64649434  0.00461967     0.40600
H3102       H  0.55083089  0.64635394  0.02107884     0.35500
C3103       C  0.67991986  0.47417188  0.08707763    -0.26200
C3104       C  0.66251048  0.46092698  0.07419275    -0.14300
C3105       C  0.65723408  0.46689854  0.05000595     0.36300
C3106       C  0.66931807  0.48616952  0.03921472    -0.25700
C3107       C  0.68678143  0.49978962  0.05207616    -0.14900
C3108       C  0.69208304  0.49347764  0.07636159     0.37400
N3109       N  0.70942131  0.50677157  0.09051635    -0.89200
H3110       H  0.68395927  0.46959293  0.10569741     0.18500
H3111       H  0.66490360  0.49048245  0.02062946     0.18500
N3112       N  0.63946487  0.45384339  0.03616300    -0.88200
H3113       H  0.72276422  0.49487350  0.09633299     0.35900
H3114       H  0.70077447  0.51360143  0.10578862     0.41000
H3115       H  0.62302002  0.45487112  0.04517991     0.40600
H3116       H  0.64458991  0.43579309  0.03535634     0.35500
C3117       C  0.75725658  0.55464634  0.07503904    -0.26200
C3118       C  0.74933403  0.56349966  0.05251281    -0.14300
C3119       C  0.76072060  0.58439231  0.04310821     0.36300
C3120       C  0.77900060  0.59598855  0.05669684    -0.25700
C3121       C  0.78629227  0.58717178  0.07921364    -0.14900
C3122       C  0.77542145  0.56626443  0.08837976     0.37400
N3123       N  0.78240529  0.55660755  0.11133277    -0.89200
H3124       H  0.74911900  0.53869667  0.08268289     0.18500
H3125       H  0.78759194  0.61207544  0.04979183     0.18500
N3126       N  0.75377073  0.59396469  0.02000907    -0.88200
H3127       H  0.77969736  0.56978371  0.12459381     0.35900
H3128       H  0.80079886  0.55266781  0.11086406     0.41000
H3129       H  0.75935402  0.58171676  0.00679901     0.40600
H3130       H  0.76295346  0.61005945  0.01659469     0.35500
C3131       C  0.65832156  0.56270412  0.95471297    -0.26200
C3132       C  0.67003434  0.58262888  0.94471009    -0.14300
C3133       C  0.69249631  0.59029820  0.95434101     0.36300
C3134       C  0.70212486  0.57839956  0.97442776    -0.25700
C3135       C  0.68998236  0.55896585  0.98530725    -0.14900
C3136       C  0.66803824  0.55075337  0.97477275     0.37400
N3137       N  0.65514823  0.53070410  0.98456378    -0.89200
H3138       H  0.64107754  0.55682120  0.94730520     0.18500
H3139       H  0.71909297  0.58493456  0.98184149     0.18500
N3140       N  0.70554511  0.61058407  0.94493042    -0.88200
H3141       H  0.65314521  0.51767021  0.97095783     0.35900
H3142       H  0.63796148  0.53651563  0.98943913     0.41000
H3143       H  0.69665587  0.61824330  0.93019393     0.40600
H3144       H  0.72200237  0.60425018  0.93848051     0.35500
C3145       C  0.56539467  0.55622140  0.29038658    -0.26200
C3146       C  0.56416380  0.58140821  0.29081459    -0.14300
C3147       C  0.55102799  0.59341765  0.27268797     0.36300
C3148       C  0.54066816  0.58008620  0.25358628    -0.25700
C3149       C  0.54274396  0.55490034  0.25246496    -0.14900
C3150       C  0.55452579  0.54283686  0.27169909     0.37400
N3151       N  0.55495984  0.51713558  0.27336075    -0.89200
H3152       H  0.57495352  0.54692087  0.30468825     0.18500
H3153       H  0.53137260  0.58952731  0.23921795     0.18500
N3154       N  0.54865964  0.61915372  0.27361170    -0.88200
H3155       H  0.56506945  0.51012921  0.25921327     0.35900
H3156       H  0.53727199  0.51061121  0.27198517     0.41000
H3157       H  0.53884872  0.62342909  0.28908561     0.40600
H3158       H  0.53857450  0.62525667  0.25883321     0.35500
C3159       C  0.65348870  0.69968601  0.25750691    -0.26200
C3160       C  0.67775877  0.69373362  0.25333250    -0.14300
C3161       C  0.68914352  0.67730784  0.26910094     0.36300
C3162       C  0.67594997  0.66657580  0.28776702    -0.25700
C3163       C  0.65159753  0.67206477  0.29132444    -0.14900
C3164       C  0.64036057  0.68926959  0.27631625     0.37400
N3165       N  0.61569678  0.69646321  0.27940252    -0.89200
H3166       H  0.64435095  0.71238894  0.24587591     0.18500
H3167       H  0.68472855  0.65368321  0.29947746     0.18500
N3168       N  0.71412680  0.67158187  0.26649672    -0.88200
H3169       H  0.61578172  0.71482624  0.28363678     0.35900
H3170       H  0.60765124  0.68780665  0.29396204     0.41000
H3171       H  0.71552667  0.65299642  0.26385348     0.40600
H3172       H  0.72304812  0.67605785  0.28266433     0.35500
C3173       C  0.75093740  0.67062644  0.20062318    -0.26200
C3174       C  0.74462371  0.69425669  0.19416966    -0.14300
C3175       C  0.75943955  0.70676256  0.17765070     0.36300
C3176       C  0.77914104  0.69516863  0.16713355    -0.25700
C3177       C  0.78462986  0.67135345  0.17283329    -0.14900
C3178       C  0.77082571  0.65908449  0.19012189     0.37400
N3179       N  0.77680090  0.63480634  0.19650322    -0.89200
H3180       H  0.74000604  0.66084843  0.21342160     0.18500
H3181       H  0.78995275  0.70466216  0.15399877     0.18500
N3182       N  0.75471751  0.73126558  0.17143661    -0.88200
H3183       H  0.76479332  0.62822819  0.20937219     0.35900
H3184       H  0.79383403  0.63521172  0.20477750     0.41000
H3185       H  0.75225148  0.73212318  0.15269737     0.40600
H3186       H  0.76996172  0.74156390  0.17600079     0.35500
C3187       C  0.66360893  0.76910588  0.20194028    -0.26200
C3188       C  0.67973571  0.75456367  0.18896348    -0.14300
C3189       C  0.68436954  0.76006303  0.16448684     0.36300
C3190       C  0.67286559  0.77964639  0.15362930    -0.25700
C3191       C  0.65676807  0.79390413  0.16664190    -0.14900
C3192       C  0.65217450  0.78865018  0.19105619     0.37400
N3193       N  0.63561764  0.80257537  0.20499720    -0.89200
H3194       H  0.65979361  0.76530029  0.22071023     0.18500
H3195       H  0.67620706  0.78353155  0.13476861     0.18500
N3196       N  0.70012876  0.74549527  0.15028384    -0.88200
H3197       H  0.64174141  0.82038737  0.20558328     0.35900
H3198       H  0.61882085  0.80213886  0.19624171     0.41000
H3199       H  0.71382921  0.75658146  0.14366391     0.40600
H3200       H  0.69030293  0.73868916  0.13549348     0.35500
C3201       C  0.06551520  0.31325430  0.83712072    -0.26200
C3202       C  0.07327888  0.33629510  0.83046002    -0.14300
C3203       C  0.06399073  0.34693830  0.80927158     0.36300
C3204       C  0.04799153  0.33390240  0.79448813    -0.25700
C3205       C  0.04090422  0.31051871  0.80066273    -0.14900
C3206       C  0.04955354  0.30018588  0.82229176     0.37400
N3207       N  0.04344044  0.27601626  0.82884981    -0.89200
H3208       H  0.07260248  0.30510280  0.85343258     0.18500
H3209       H  0.04187102  0.34163573  0.77758446     0.18500
N3210       N  0.07110906  0.37064058  0.80209925    -0.88200
H3211       H  0.04912112  0.26439668  0.81512925     0.35900
H3212       H  0.02467598  0.27470834  0.83006504     0.41000
H3213       H  0.08982093  0.37097505  0.80001867     0.40600
H3214       H  0.06666544  0.38266153  0.81594981     0.35500
C3215       C  0.69619254  0.43639352  0.79284815    -0.26200
C3216       C  0.69828952  0.46147058  0.79457603    -0.14300
C3217       C  0.68274256  0.47435291  0.81015515     0.36300
C3218       C  0.66506047  0.46184874  0.82296838    -0.25700
C3219       C  0.66252464  0.43684506  0.82081749    -0.14900
C3220       C  0.67840666  0.42387116  0.80564467     0.37400
N3221       N  0.67683344  0.39818252  0.80249002    -0.89200
H3222       H  0.70771231  0.42656835  0.78057321     0.18500
H3223       H  0.65329276  0.47173167  0.83495666     0.18500
N3224       N  0.68421903  0.50007428  0.81330545    -0.88200
H3225       H  0.67290505  0.39475204  0.78425385     0.35900
H3226       H  0.66261446  0.39075373  0.81219561     0.41000
H3227       H  0.69863863  0.50752495  0.80389862     0.40600
H3228       H  0.68788063  0.50353501  0.83158925     0.35500
C3229       C  0.31665883  0.52509611  0.95552353    -0.26200
C3230       C  0.29869117  0.51087893  0.94412704    -0.14300
C3231       C  0.29139692  0.51684046  0.92026743     0.36300
C3232       C  0.30199538  0.53655278  0.90856956    -0.25700
C3233       C  0.31988336  0.55048837  0.92004888    -0.14900
C3234       C  0.32730203  0.54478241  0.94372705     0.37400
N3235       N  0.34623111  0.55852954  0.95533332    -0.89200
H3236       H  0.32256193  0.52083549  0.97370983     0.18500
H3237       H  0.29662140  0.54068856  0.89017453     0.18500
N3238       N  0.27377491  0.50261327  0.90744856    -0.88200
H3239       H  0.35013850  0.55160510  0.97244977     0.35900
H3240       H  0.33983279  0.57596797  0.95809623     0.41000
H3241       H  0.28166301  0.49601445  0.89166394     0.40600
H3242       H  0.25953179  0.51382834  0.90245935     0.35500
C3243       C  0.20612081  0.41506347  0.94751765    -0.26200
C3244       C  0.19601467  0.42512898  0.92660564    -0.14300
C3245       C  0.20535484  0.44701711  0.91796619     0.36300
C3246       C  0.22485060  0.45809508  0.92989829    -0.25700
C3247       C  0.23581765  0.44781587  0.95048727    -0.14900
C3248       C  0.22580585  0.42615404  0.95965959     0.37400
N3249       N  0.23559576  0.41527568  0.98104004    -0.89200
H3250       H  0.19885343  0.39821665  0.95410327     0.18500
H3251       H  0.23170066  0.47475518  0.92251260     0.18500
N3252       N  0.19567693  0.45812137  0.89671668    -0.88200
H3253       H  0.22724135  0.39870664  0.98429041     0.35900
H3254       H  0.23105449  0.42644129  0.99555071     0.41000
H3255       H  0.17742306  0.46159818  0.89954737     0.40600
H3256       H  0.19707828  0.44601141  0.88225483     0.35500
C3257       C  0.32824925  0.45730088  0.01367372    -0.26200
C3258       C  0.30339683  0.45240808  0.01099272    -0.14300
C3259       C  0.29192765  0.43837464  0.02882172     0.36300
C3260       C  0.30553657  0.42845956  0.04783764    -0.25700
C3261       C  0.33043492  0.43262816  0.04981168    -0.14900
C3262       C  0.34174066  0.44770061  0.03281418     0.37400
N3263       N  0.36686597  0.45369808  0.03469401    -0.89200
H3264       H  0.33747557  0.46834792  0.00056175     0.18500
H3265       H  0.29663687  0.41725571  0.06105405     0.18500
N3266       N  0.26641073  0.43447425  0.02807264    -0.88200
H3267       H  0.37694362  0.43795233  0.03339640     0.35900
H3268       H  0.37008708  0.46147562  0.05169997     0.41000
H3269       H  0.25918547  0.44126901  0.04409252     0.40600
H3270       H  0.26323276  0.41590456  0.02760551     0.35500
C3271       C  0.50961075  0.46536575  0.82264799    -0.26200
C3272       C  0.49424788  0.44981476  0.80928202    -0.14300
C3273       C  0.50043600  0.42506884  0.80767599     0.36300
C3274       C  0.52135685  0.41677560  0.81905657    -0.25700
C3275       C  0.53650764  0.43237289  0.83219313    -0.14900
C3276       C  0.53054399  0.45692486  0.83403655     0.37400
N3277       N  0.54514497  0.47351877  0.84777384    -0.89200
H3278       H  0.50539753  0.48430808  0.82429855     0.18500
H3279       H  0.52571186  0.39781357  0.81791883     0.18500
N3280       N  0.48562141  0.40761329  0.79542827    -0.88200
H3281       H  0.56240987  0.47390056  0.84040366     0.35900
H3282       H  0.54647545  0.46724573  0.86551532     0.41000
H3283       H  0.48517292  0.41158919  0.77700636     0.40600
H3284       H  0.46828931  0.40826218  0.80263787     0.35500
C3285       C  0.40638246  0.51636932  0.80303605    -0.26200
C3286       C  0.43103906  0.51213280  0.80740449    -0.14300
C3287       C  0.44405169  0.52832660  0.82256172     0.36300
C3288       C  0.43206092  0.54750874  0.83378969    -0.25700
C3289       C  0.40728457  0.55094670  0.83013779    -0.14900
C3290       C  0.39448585  0.53553756  0.81430173     0.37400
N3291       N  0.36928213  0.53916983  0.80992560    -0.89200
H3292       H  0.39601638  0.50436832  0.79136432     0.18500
H3293       H  0.44203555  0.55950688  0.84581549     0.18500
N3294       N  0.46943086  0.52552306  0.82655144    -0.88200
H3295       H  0.36669504  0.54155620  0.79134900     0.35900
H3296       H  0.36006324  0.52353825  0.81494386     0.41000
H3297       H  0.47245671  0.52360582  0.84512661     0.40600
H3298       H  0.47811172  0.54127757  0.82101093     0.35500
C3299       C  0.41785875  0.41095063  0.72381212    -0.26200
C3300       C  0.40621756  0.42507608  0.70639512    -0.14300
C3301       C  0.40610664  0.45030355  0.70918445     0.36300
C3302       C  0.41806991  0.46090104  0.72917628    -0.25700
C3303       C  0.42953757  0.44674025  0.74680007    -0.14900
C3304       C  0.42898094  0.42141726  0.74425111     0.37400
N3305       N  0.43868025  0.40633485  0.76289470    -0.89200
H3306       H  0.41739388  0.39153187  0.72186394     0.18500
H3307       H  0.41822701  0.48031191  0.73113663     0.18500
N3308       N  0.39352770  0.46496998  0.69194265    -0.88200
H3309       H  0.43688592  0.38815481  0.75817218     0.35900
H3310       H  0.42827233  0.40894620  0.77834272     0.41000
H3311       H  0.37518029  0.46070594  0.69299759     0.40600
H3312       H  0.39525210  0.48318374  0.69654795     0.35500
C3313       C  0.52065787  0.34355511  0.95751356    -0.26200
C3314       C  0.51015127  0.32262358  0.94719966    -0.14300
C3315       C  0.51980540  0.31377441  0.92521767     0.36300
C3316       C  0.53812153  0.32666509  0.91345356    -0.25700
C3317       C  0.54761952  0.34802193  0.92329057    -0.14900
C3318       C  0.53926967  0.35611038  0.94593279     0.37400
N3319       N  0.54927431  0.37713702  0.95743443    -0.89200
H3320       H  0.51418595  0.35054314  0.97456666     0.18500
H3321       H  0.54475142  0.32011417  0.89626999     0.18500
N3322       N  0.51102574  0.29186281  0.91446507    -0.88200
H3323       H  0.54676606  0.39184515  0.94604391     0.35900
H3324       H  0.56780851  0.37454173  0.95973632     0.41000
H3325       H  0.52552870  0.28007240  0.91278302     0.40600
H3326       H  0.50453423  0.29570375  0.89710776     0.35500
C3327       C  0.42671218  0.31316653  0.02113079    -0.26200
C3328       C  0.44634218  0.32466549  0.00988104    -0.14300
C3329       C  0.45350872  0.34771304  0.01854079     0.36300
C3330       C  0.44113243  0.35850634  0.03780347    -0.25700
C3331       C  0.42152142  0.34701166  0.04870113    -0.14900
C3332       C  0.41419697  0.32400316  0.04022586     0.37400
N3333       N  0.39415369  0.31113595  0.05038503    -0.89200
H3334       H  0.42075975  0.29553923  0.01499390     0.18500
H3335       H  0.44668967  0.37622093  0.04411343     0.18500
N3336       N  0.47300925  0.36057780  0.00766899    -0.88200
H3337       H  0.38087835  0.30949480  0.03691210     0.35900
H3338       H  0.38640331  0.32055952  0.06468502     0.41000
H3339       H  0.48598282  0.36426495  0.02105751     0.40600
H3340       H  0.46640680  0.37697033  0.00133628     0.35500
C3341       C  0.41173377  0.23215519  0.94135570    -0.26200
C3342       C  0.42401377  0.22006293  0.92295433    -0.14300
C3343       C  0.44766448  0.22743450  0.91728709     0.36300
C3344       C  0.45834260  0.24692063  0.92967760    -0.25700
C3345       C  0.44595321  0.25969310  0.94778896    -0.14900
C3346       C  0.42226896  0.25189737  0.95378276     0.37400
N3347       N  0.40863251  0.26421863  0.97198487    -0.89200
H3348       H  0.39353208  0.22649441  0.94560153     0.18500
H3349       H  0.47646040  0.25224069  0.92477482     0.18500
N3350       N  0.46102271  0.21578547  0.89857409    -0.88200
H3351       H  0.39221221  0.25542385  0.97496887     0.35900
H3352       H  0.40431459  0.28118534  0.96520547     0.41000
H3353       H  0.45113419  0.21688526  0.88243310     0.40600
H3354       H  0.46288859  0.19763999  0.90300323     0.35500
C3355       C  0.30056425  0.24986981  0.83840966    -0.26200
C3356       C  0.30425330  0.25477739  0.81376896    -0.14300
C3357       C  0.32071418  0.24024688  0.80070724     0.36300
C3358       C  0.33363447  0.22217203  0.81274880    -0.25700
C3359       C  0.33030937  0.21783010  0.83736798    -0.14900
C3360       C  0.31338874  0.23165122  0.85024528     0.37400
N3361       N  0.30886519  0.22746853  0.87532507    -0.89200
H3362       H  0.28798413  0.26054713  0.84873596     0.18500
H3363       H  0.34649129  0.21136713  0.80289703     0.18500
N3364       N  0.32423861  0.24366144  0.77522854    -0.88200
H3365       H  0.32490183  0.23017784  0.88506116     0.35900
H3366       H  0.30353717  0.20951175  0.87729924     0.41000
H3367       H  0.30808244  0.23902713  0.76641418     0.40600
H3368       H  0.33733476  0.23194526  0.76862073     0.35500
C3369       C  0.32430515  0.30998592  0.74320939    -0.26200
C3370       C  0.29972207  0.31375515  0.74794381    -0.14300
C3371       C  0.28577415  0.32709840  0.73120738     0.36300
C3372       C  0.29693739  0.33701577  0.71078083    -0.25700
C3373       C  0.32161488  0.33388775  0.70672455    -0.14900
C3374       C  0.33533763  0.32000467  0.72300088     0.37400
N3375       N  0.36058354  0.31605176  0.71955637    -0.89200
H3376       H  0.33531953  0.29974869  0.75567833     0.18500
H3377       H  0.28651896  0.34777779  0.69825082     0.18500
N3378       N  0.26042445  0.33062611  0.73493869    -0.88200
H3379       H  0.36954659  0.33263703  0.71987973     0.35900
H3380       H  0.36289776  0.30815948  0.70252316     0.41000
H3381       H  0.25198286  0.31378158  0.73359038     0.40600
H3382       H  0.25302915  0.34120152  0.72121544     0.35500
C3383       C  0.20472103  0.31640829  0.84008256    -0.26200
C3384       C  0.19913036  0.34006162  0.83353291    -0.14300
C3385       C  0.21303398  0.35166297  0.81569570     0.36300
C3386       C  0.23268885  0.33958011  0.80559505    -0.25700
C3387       C  0.23886866  0.31605198  0.81259976    -0.14900
C3388       C  0.22431240  0.30430533  0.82978820     0.37400
N3389       N  0.22908721  0.28001627  0.83672798    -0.89200
H3390       H  0.19393739  0.30737335  0.85355719     0.18500
H3391       H  0.24341382  0.34896461  0.79232718     0.18500
N3392       N  0.20802118  0.37568897  0.80761147    -0.88200
H3393       H  0.21372013  0.26964693  0.83282489     0.35900
H3394       H  0.23197640  0.27976600  0.85543685     0.41000
H3395       H  0.19298330  0.38291354  0.81614060     0.40600
H3396       H  0.20367203  0.37465477  0.78919704     0.35500
C3397       C  0.79548629  0.21839915  0.06645597    -0.26200
C3398       C  0.78444578  0.20852208  0.04574080    -0.14300
C3399       C  0.78928866  0.18460963  0.03878964     0.36300
C3400       C  0.80578645  0.17123734  0.05224529    -0.25700
C3401       C  0.81793580  0.18168554  0.07204737    -0.14900
C3402       C  0.81227333  0.20521362  0.07964974     0.37400
N3403       N  0.82403599  0.21637094  0.10004598    -0.89200
H3404       H  0.79224080  0.23699731  0.07143054     0.18500
H3405       H  0.81009321  0.15308220  0.04654655     0.18500
N3406       N  0.77885370  0.17411500  0.01735975    -0.88200
H3407       H  0.84261607  0.21657592  0.09700473     0.35900
H3408       H  0.82071110  0.20597029  0.11533167     0.41000
H3409       H  0.78390673  0.18448373  0.00251990     0.40600
H3410       H  0.76009001  0.17477009  0.01886451     0.35500
C3411       C  0.67694476  0.22837588  0.92570788    -0.26200
C3412       C  0.69175578  0.21677542  0.94264166    -0.14300
C3413       C  0.69100900  0.19155435  0.94467863     0.36300
C3414       C  0.67606961  0.17826759  0.92883025    -0.25700
C3415       C  0.66208371  0.18986108  0.91117019    -0.14900
C3416       C  0.66178498  0.21513490  0.91014402     0.37400
N3417       N  0.64651071  0.22710160  0.89293359    -0.89200
H3418       H  0.67756560  0.24782397  0.92438031     0.18500
H3419       H  0.67586564  0.15879010  0.92966547     0.18500
N3420       N  0.70612787  0.17955864  0.96201730    -0.88200
H3421       H  0.64861413  0.24576717  0.89440014     0.35900
H3422       H  0.62864102  0.22322793  0.89744019     0.41000
H3423       H  0.72405860  0.18254826  0.95712389     0.40600
H3424       H  0.70327650  0.16095111  0.96118692     0.35500
C3425       C  0.69462476  0.30585471  0.06623916    -0.26200
C3426       C  0.69012344  0.30382432  0.04136510    -0.14300
C3427       C  0.67150926  0.31716028  0.03055939     0.36300
C3428       C  0.65810898  0.33307608  0.04465797    -0.25700
C3429       C  0.66342109  0.33602468  0.06928704    -0.14900
C3430       C  0.68134203  0.32194423  0.08042009     0.37400
N3431       N  0.68678624  0.32505576  0.10571635    -0.89200
H3432       H  0.70946936  0.29602641  0.07425392     0.18500
H3433       H  0.64411995  0.34378224  0.03625146     0.18500
N3434       N  0.66698196  0.31531458  0.00506794    -0.88200
H3435       H  0.70098760  0.31387438  0.11089867     0.35900
H3436       H  0.67170331  0.31938634  0.11539055     0.41000
H3437       H  0.66928789  0.33239602  0.99761463     0.40600
H3438       H  0.64897304  0.31015929  0.00246203     0.35500
C3439       C  0.70013935  0.34824666  0.94592079    -0.26200
C3440       C  0.71609106  0.33492940  0.93142099    -0.14300
C3441       C  0.71132895  0.33261960  0.90640387     0.36300
C3442       C  0.68998452  0.34225680  0.89677412    -0.25700
C3443       C  0.67360220  0.35440372  0.91161897    -0.14900
C3444       C  0.67899855  0.35792193  0.93619702     0.37400
N3445       N  0.66294802  0.37126894  0.95127272    -0.89200
H3446       H  0.70332469  0.35010583  0.96521010     0.18500
H3447       H  0.68607963  0.34043924  0.87760762     0.18500
N3448       N  0.72797530  0.32025527  0.89100949    -0.88200
H3449       H  0.67258513  0.38569017  0.95894778     0.35900
H3450       H  0.65729381  0.36006578  0.96524157     0.41000
H3451       H  0.74409994  0.33010683  0.89123561     0.40600
H3452       H  0.72172588  0.32010487  0.87310351     0.35500
C3453       C  0.82908343  0.30731933  0.05230783    -0.26200
C3454       C  0.81511056  0.32183557  0.03691995    -0.14300
C3455       C  0.81172631  0.34631576  0.04296950     0.36300
C3456       C  0.82124545  0.35532451  0.06483016    -0.25700
C3457       C  0.83446912  0.34055803  0.08049395    -0.14900
C3458       C  0.83883000  0.31646528  0.07390267     0.37400
N3459       N  0.85332992  0.30106315  0.08865680    -0.89200
H3460       H  0.83170084  0.28845961  0.04804668     0.18500
H3461       H  0.81888800  0.37413379  0.06948996     0.18500
N3462       N  0.79862661  0.36188403  0.02694737    -0.88200
H3463       H  0.84542797  0.29981723  0.10567635     0.35900
H3464       H  0.87039652  0.30895279  0.09076072     0.41000
H3465       H  0.80841154  0.36312881  0.01093670     0.40600
H3466       H  0.79773239  0.37930007  0.03414635     0.35500
C3467       C  0.80291668  0.07871428  0.14351789    -0.26200
C3468       C  0.81855116  0.09315642  0.15757641    -0.14300
C3469       C  0.81312712  0.09780600  0.18197198     0.36300
C3470       C  0.79274187  0.08722676  0.19209257    -0.25700
C3471       C  0.77761142  0.07181705  0.17839798    -0.14900
C3472       C  0.78251393  0.06797009  0.15375609     0.37400
N3473       N  0.76674137  0.05334920  0.13909543    -0.89200
H3474       H  0.80648843  0.07598637  0.12446574     0.18500
H3475       H  0.78939041  0.09020506  0.21114273     0.18500
N3476       N  0.82792260  0.11332980  0.19674197    -0.88200
H3477       H  0.77684961  0.03930879  0.13175264     0.35900
H3478       H  0.76039398  0.06387667  0.12482984     0.41000
H3479       H  0.82863335  0.13026822  0.18866512     0.40600
H3480       H  0.84535951  0.10633217  0.19732924     0.35500
C3481       C  0.66228031  0.04895044  0.29618510    -0.26200
C3482       C  0.68122151  0.06239920  0.28597764    -0.14300
C3483       C  0.68801151  0.08456535  0.29685213     0.36300
C3484       C  0.67617961  0.09253454  0.31761460    -0.25700
C3485       C  0.65772109  0.07883650  0.32787537    -0.14900
C3486       C  0.65056403  0.05693558  0.31696818     0.37400
N3487       N  0.63134389  0.04265563  0.32654667    -0.89200
H3488       H  0.65694934  0.03173019  0.28845924     0.18500
H3489       H  0.68118512  0.10974010  0.32561601     0.18500
N3490       N  0.70690342  0.09908978  0.28699010    -0.88200
H3491       H  0.61567452  0.05299310  0.32667581     0.35900
H3492       H  0.63575879  0.03829323  0.34440170     0.41000
H3493       H  0.72021781  0.10149063  0.30032068     0.40600
H3494       H  0.69978323  0.11596546  0.28287324     0.35500
C3495       C  0.67600063  0.93179607  0.15167833    -0.26200
C3496       C  0.65831919  0.91986235  0.16497617    -0.14300
C3497       C  0.65226994  0.92826390  0.18815825     0.36300
C3498       C  0.66427937  0.94834358  0.19778025    -0.25700
C3499       C  0.68253834  0.96021637  0.18476827    -0.14900
C3500       C  0.68827512  0.95176403  0.16134875     0.37400
N3501       N  0.70672232  0.96306081  0.14737219    -0.89200
H3502       H  0.68028416  0.92552727  0.13362774     0.18500
H3503       H  0.65964695  0.95423619  0.21585131     0.18500
N3504       N  0.63398442  0.91675587  0.20218308    -0.88200
H3505       H  0.69901176  0.96869989  0.13105166     0.35900
H3506       H  0.71977877  0.95017509  0.14341825     0.41000
H3507       H  0.63887262  0.89881090  0.20472006     0.40600
H3508       H  0.61778898  0.91705458  0.19235868     0.35500
C3509       C  0.80803297  0.05122467  0.31393772    -0.26200
C3510       C  0.80661137  0.05446198  0.28889941    -0.14300
C3511       C  0.81836843  0.07434882  0.27826205     0.36300
C3512       C  0.83070586  0.09102699  0.29304278    -0.25700
C3513       C  0.83110739  0.08845801  0.31820641    -0.14900
C3514       C  0.81982375  0.06817887  0.32872535     0.37400
N3515       N  0.81886823  0.06507428  0.35439875    -0.89200
H3516       H  0.79848164  0.03637663  0.32221505     0.18500
H3517       H  0.83962462  0.10638934  0.28501030     0.18500
N3518       N  0.81704306  0.07787261  0.25254498    -0.88200
H3519       H  0.83634553  0.06319402  0.36123961     0.35900
H3520       H  0.81123573  0.08045810  0.36206546     0.41000
H3521       H  0.82588217  0.06349085  0.24426997     0.40600
H3522       H  0.82630547  0.09352096  0.24766400     0.35500
C3523       C  0.06186559  0.92875759  0.41166961    -0.26200
C3524       C  0.07950887  0.91760613  0.42591199    -0.14300
C3525       C  0.07624213  0.91543865  0.45097721     0.36300
C3526       C  0.05563097  0.92542607  0.46152811    -0.25700
C3527       C  0.03815560  0.93722625  0.44735795    -0.14900
C3528       C  0.04106739  0.93831145  0.42201416     0.37400
N3529       N  0.02304479  0.94927128  0.40688029    -0.89200
H3530       H  0.06425468  0.92963825  0.39226297     0.18500
H3531       H  0.05367447  0.92470212  0.48098265     0.18500
N3532       N  0.09391591  0.90328250  0.46552870    -0.88200
H3533       H  0.00731993  0.93888991  0.40812564     0.35900
H3534       H  0.02815944  0.94880664  0.38873390     0.41000
H3535       H  0.09404482  0.88523876  0.46006075     0.40600
H3536       H  0.08892728  0.90347035  0.48371285     0.35500
C3537       C  0.42544962  0.80375869  0.51042626    -0.26200
C3538       C  0.44008769  0.81879192  0.49617123    -0.14300
C3539       C  0.44253952  0.84328309  0.50291305     0.36300
C3540       C  0.43025993  0.85218580  0.52317139    -0.25700
C3541       C  0.41538586  0.83724677  0.53700510    -0.14900
C3542       C  0.41302453  0.81274213  0.53065852     0.37400
N3543       N  0.39776091  0.79719586  0.54456334    -0.89200
H3544       H  0.42342283  0.78491998  0.50562760     0.18500
H3545       H  0.43195635  0.87108974  0.52787960     0.18500
N3546       N  0.45677316  0.85947715  0.48884863    -0.88200
H3547       H  0.39805759  0.77965695  0.53762588     0.35900
H3548       H  0.38004901  0.80326167  0.54257040     0.41000
H3549       H  0.47004434  0.86705204  0.50015730     0.40600
H3550       H  0.44560727  0.87332886  0.48281737     0.35500
C3551       C  0.29622036  0.93870595  0.51609540    -0.26200
C3552       C  0.31037545  0.95381563  0.50146128    -0.14300
C3553       C  0.33532331  0.95647150  0.50728576     0.36300
C3554       C  0.34525105  0.94379701  0.52673413    -0.25700
C3555       C  0.33110079  0.92847892  0.54080903    -0.14900
C3556       C  0.30630727  0.92603682  0.53563066     0.37400
N3557       N  0.29169853  0.90993158  0.54960613    -0.89200
H3558       H  0.27716959  0.93645360  0.51213689     0.18500
H3559       H  0.36438510  0.94551794  0.53062569     0.18500
N3560       N  0.35137574  0.97118526  0.49354829    -0.88200
H3561       H  0.27399827  0.90949005  0.54292517     0.35900
H3562       H  0.29081779  0.91688942  0.56717084     0.41000
H3563       H  0.34584637  0.98907027  0.49479730     0.40600
H3564       H  0.35098635  0.96540524  0.47552131     0.35500
C3565       C  0.33042885  0.02627035  0.44786875    -0.26200
C3566       C  0.31187869  0.01366305  0.43548575    -0.14300
C3567       C  0.30620615  0.02048481  0.41145878     0.36300
C3568       C  0.31884214  0.03951187  0.40062738    -0.25700
C3569       C  0.33710703  0.05196427  0.41320409    -0.14900
C3570       C  0.34298852  0.04518754  0.43701913     0.37400
N3571       N  0.36173241  0.05719477  0.45051811    -0.89200
H3572       H  0.33521896  0.02158159  0.46625162     0.18500
H3573       H  0.31432450  0.04465223  0.38227236     0.18500
N3574       N  0.28794069  0.00805268  0.39773638    -0.88200
H3575       H  0.35740343  0.07542458  0.45193063     0.35900
H3576       H  0.37779242  0.05570028  0.44090167     0.41000
H3577       H  0.29584664  0.00102477  0.38214667     0.40600
H3578       H  0.27500144  0.02059449  0.39239970     0.35500
C3579       C  0.21347419  0.94930740  0.40920070    -0.26200
C3580       C  0.20561796  0.92773786  0.41948911    -0.14300
C3581       C  0.21640020  0.91978673  0.44112421     0.36300
C3582       C  0.23582247  0.93267112  0.45121305    -0.25700
C3583       C  0.24470555  0.95385745  0.44044016    -0.14900
C3584       C  0.23251809  0.96277752  0.41967325     0.37400
N3585       N  0.23933067  0.98538024  0.40921533    -0.89200
H3586       H  0.20463585  0.95564011  0.39290322     0.18500
H3587       H  0.24424427  0.92566611  0.46742813     0.18500
N3588       N  0.20810153  0.89852208  0.45304719    -0.88200
H3589       H  0.23526770  0.99887622  0.42176352     0.35900
H3590       H  0.22895985  0.98890245  0.39376417     0.41000
H3591       H  0.20962386  0.88392375  0.44116672     0.40600
H3592       H  0.18987349  0.90072768  0.45710558     0.35500
C3593       C  0.67597664  0.96022376  0.33412764    -0.26200
C3594       C  0.67183404  0.93570088  0.32969615    -0.14300
C3595       C  0.68827511  0.92263715  0.31516564     0.36300
C3596       C  0.70737690  0.93486358  0.30414271    -0.25700
C3597       C  0.71018779  0.95975541  0.30690414    -0.14900
C3598       C  0.69478421  0.97238420  0.32274330     0.37400
N3599       N  0.69734260  0.99778383  0.32683758    -0.89200
H3600       H  0.66400997  0.97012142  0.34589658     0.18500
H3601       H  0.71868484  0.92521364  0.29152946     0.18500
N3602       N  0.68541611  0.89737956  0.30997532    -0.88200
H3603       H  0.69476487  0.00681546  0.31053095     0.35900
H3604       H  0.71492024  0.00121584  0.33300564     0.41000
H3605       H  0.66968071  0.89024947  0.31730134     0.40600
H3606       H  0.69991494  0.88845802  0.31804274     0.35500
C3607       C  0.53760195  0.84811419  0.43171194    -0.26200
C3608       C  0.54035041  0.84505412  0.40668996    -0.14300
C3609       C  0.52415103  0.82985285  0.39394273     0.36300
C3610       C  0.50512365  0.81875989  0.40616438    -0.25700
C3611       C  0.50184480  0.82213579  0.43119371    -0.14900
C3612       C  0.51871521  0.83662512  0.44417890     0.37400
N3613       N  0.51694385  0.83932120  0.46996179    -0.89200
H3614       H  0.55032564  0.85948977  0.44152966     0.18500
H3615       H  0.49264222  0.80760674  0.39582834     0.18500
N3616       N  0.52680910  0.82517656  0.36860604    -0.88200
H3617       H  0.53062595  0.85064930  0.47664856     0.35900
H3618       H  0.51990639  0.82242415  0.47758954     0.41000
H3619       H  0.54393603  0.81797950  0.36583991     0.40600
H3620       H  0.52569073  0.84146885  0.35934837     0.35500
C3621       C  0.51104134  0.93564962  0.29320185    -0.26200
C3622       C  0.50627385  0.96019054  0.29719214    -0.14300
C3623       C  0.52187787  0.97343602  0.31296331     0.36300
C3624       C  0.54057138  0.96152195  0.32542611    -0.25700
C3625       C  0.54454591  0.93686741  0.32199956    -0.14900
C3626       C  0.52993853  0.92401606  0.30524079     0.37400
N3627       N  0.53403823  0.89910734  0.29998096    -0.89200
H3628       H  0.49971320  0.92516549  0.28096358     0.18500
H3629       H  0.55208207  0.97145991  0.33795823     0.18500
N3630       N  0.51895615  0.99892800  0.31614114    -0.88200
H3631       H  0.53192897  0.88920321  0.31581132     0.35900
H3632       H  0.55180777  0.89724843  0.29414546     0.41000
H3633       H  0.52267926  0.00701542  0.29956591     0.40600
H3634       H  0.53163665  0.00579793  0.32853609     0.35500
C3635       C  0.41594507  0.95718346  0.19840803    -0.26200
C3636       C  0.41739080  0.93206532  0.19644095    -0.14300
C3637       C  0.43101643  0.91938064  0.21375283     0.36300
C3638       C  0.44282781  0.93187587  0.23268436    -0.25700
C3639       C  0.44115481  0.95703155  0.23497344    -0.14900
C3640       C  0.42770567  0.96982573  0.21737626     0.37400
N3641       N  0.42615696  0.99561010  0.21863985    -0.89200
H3642       H  0.40534708  0.96692225  0.18519107     0.18500
H3643       H  0.45293488  0.92172058  0.24596702     0.18500
N3644       N  0.43264280  0.89370448  0.21227759    -0.88200
H3645       H  0.41539516  0.00216125  0.20455501     0.35900
H3646       H  0.44349176  0.00256207  0.21599767     0.41000
H3647       H  0.42591767  0.88655723  0.22831461     0.40600
H3648       H  0.45086871  0.88917224  0.21114865     0.35500
C3649       C  0.41805810  0.02458780  0.29576772    -0.26200
C3650       C  0.44330207  0.02281639  0.29571499    -0.14300
C3651       C  0.45720779  0.04107198  0.30721909     0.36300
C3652       C  0.44557041  0.05950699  0.32010536    -0.25700
C3653       C  0.42031930  0.06059428  0.32109111    -0.14900
C3654       C  0.40639112  0.04332892  0.30796762     0.37400
N3655       N  0.38045482  0.04392582  0.30693508    -0.89200
H3656       H  0.40715716  0.01093940  0.28670704     0.18500
H3657       H  0.45623371  0.07291308  0.32979653     0.18500
N3658       N  0.48305816  0.04089178  0.30573395    -0.88200
H3659       H  0.37537561  0.04545510  0.28875702     0.35900
H3660       H  0.37365082  0.05917017  0.31550463     0.41000
H3661       H  0.49055976  0.05554559  0.31516422     0.40600
H3662       H  0.48755100  0.04315902  0.28757370     0.35500
C3663       C  0.42808624  0.73326003  0.39608992    -0.26200
C3664       C  0.41491723  0.71752519  0.41070964    -0.14300
C3665       C  0.41452719  0.72151686  0.43589900     0.36300
C3666       C  0.42709271  0.74139155  0.44586858    -0.25700
C3667       C  0.43995257  0.75755146  0.43120587    -0.14900
C3668       C  0.44052181  0.75307453  0.40589998     0.37400
N3669       N  0.45276934  0.76862227  0.38945250    -0.89200
H3670       H  0.42831043  0.73032597  0.37669425     0.18500
H3671       H  0.42657807  0.74441756  0.46522842     0.18500
N3672       N  0.40108424  0.70559974  0.45117895    -0.88200
H3673       H  0.47124175  0.76818861  0.39327091     0.35900
H3674       H  0.44631685  0.78612660  0.39162435     0.41000
H3675       H  0.38284726  0.70720977  0.44652539     0.40600
H3676       H  0.40276939  0.71090865  0.46928775     0.35500
C3677       C  0.23861387  0.84471887  0.29850421    -0.26200
C3678       C  0.24200179  0.81974272  0.30068045    -0.14300
C3679       C  0.22548272  0.80641609  0.31474165     0.36300
C3680       C  0.20704679  0.81827282  0.32720207    -0.25700
C3681       C  0.20436079  0.84325410  0.32573448    -0.14900
C3682       C  0.22004641  0.85651080  0.31078297     0.37400
N3683       N  0.21737221  0.88191255  0.30758106    -0.89200
H3684       H  0.25077555  0.85532339  0.28759414     0.18500
H3685       H  0.19482724  0.80790176  0.33828859     0.18500
N3686       N  0.22699940  0.78077450  0.31619987    -0.88200
H3687       H  0.21955546  0.89051412  0.32430698     0.35900
H3688       H  0.19988349  0.88513897  0.30121297     0.41000
H3689       H  0.21076258  0.77343400  0.30969562     0.40600
H3690       H  0.22871580  0.77620336  0.33444014     0.35500
C3691       C  0.32609309  0.74768162  0.29016082    -0.26200
C3692       C  0.30342435  0.75528145  0.29853318    -0.14300
C3693       C  0.29245410  0.74208340  0.31732720     0.36300
C3694       C  0.30456552  0.72265827  0.32782290    -0.25700
C3695       C  0.32749266  0.71592108  0.32006266    -0.14900
C3696       C  0.33822242  0.72823091  0.30061237     0.37400
N3697       N  0.36150024  0.72191079  0.29133360    -0.89200
H3698       H  0.33489256  0.75719275  0.27564808     0.18500
H3699       H  0.29623938  0.71309180  0.34261818     0.18500
N3700       N  0.26910420  0.74826753  0.32607655    -0.88200
H3701       H  0.35903694  0.71640362  0.27336067     0.35900
H3702       H  0.36890024  0.70728532  0.30043878     0.41000
H3703       H  0.27065474  0.75210272  0.34456585     0.40600
H3704       H  0.25778221  0.73326939  0.32392957     0.35500
C3705       C  0.29382488  0.83888597  0.22564597    -0.26200
C3706       C  0.30597840  0.82070719  0.23844038    -0.14300
C3707       C  0.32953211  0.81434667  0.23099143     0.36300
C3708       C  0.34011531  0.82596174  0.21122668    -0.25700
C3709       C  0.32787521  0.84398264  0.19865641    -0.14900
C3710       C  0.30451807  0.85051547  0.20600275     0.37400
N3711       N  0.29145914  0.86918338  0.19401438    -0.89200
H3712       H  0.27585722  0.84420717  0.23090545     0.18500
H3713       H  0.35820817  0.82112755  0.20587161     0.18500
N3714       N  0.34315340  0.79654685  0.24368361    -0.88200
H3715       H  0.28948965  0.86442660  0.17577646     0.35900
H3716       H  0.30165621  0.88504500  0.19512232     0.41000
H3717       H  0.35914691  0.80455740  0.24999394     0.40600
H3718       H  0.34765159  0.78293533  0.23141923     0.35500
C3719       C  0.41447357  0.05981846  0.08664179    -0.26200
C3720       C  0.40911714  0.08393778  0.08220260    -0.14300
C3721       C  0.42455961  0.09796568  0.06787905     0.36300
C3722       C  0.44527325  0.08751393  0.05816453    -0.25700
C3723       C  0.45073444  0.06324712  0.06236946    -0.14900
C3724       C  0.43504563  0.04927659  0.07673079     0.37400
N3725       N  0.43934762  0.02418991  0.08055982    -0.89200
H3726       H  0.40268021  0.04919251  0.09794110     0.18500
H3727       H  0.45694643  0.09824354  0.04684738     0.18500
N3728       N  0.41912032  0.12281930  0.06345452    -0.88200
H3729       H  0.42438139  0.01452845  0.07403916     0.35900
H3730       H  0.44069335  0.02131568  0.09918793     0.41000
H3731       H  0.40300337  0.12333486  0.05351124     0.40600
H3732       H  0.43236050  0.13069337  0.05268075     0.35500
C3733       C  0.58071313  0.07037920  0.95688587    -0.26200
C3734       C  0.55837743  0.07824658  0.96579498    -0.14300
C3735       C  0.54672480  0.09766508  0.95404490     0.36300
C3736       C  0.55698121  0.10790260  0.93345030    -0.25700
C3737       C  0.57873213  0.09936850  0.92429921    -0.14900
C3738       C  0.59088632  0.08068183  0.93632692     0.37400
N3739       N  0.61335175  0.07156450  0.92771909    -0.89200
H3740       H  0.58985518  0.05535587  0.96524169     0.18500
H3741       H  0.54780239  0.12250953  0.92439090     0.18500
N3742       N  0.52393906  0.10644380  0.96217353    -0.88200
H3743       H  0.62578451  0.08578231  0.92726980     0.35900
H3744       H  0.61075207  0.06512126  0.91008820     0.41000
H3745       H  0.51140880  0.10444342  0.94803732     0.40600
H3746       H  0.52582573  0.12481465  0.96600949     0.35500
C3747       C  0.54341868  0.94610585  0.06769222    -0.26200
C3748       C  0.55716807  0.96164921  0.05315773    -0.14300
C3749       C  0.58123885  0.95528729  0.04762919     0.36300
C3750       C  0.59093645  0.93418462  0.05718700    -0.25700
C3751       C  0.57702953  0.91894258  0.07163391    -0.14900
C3752       C  0.55307418  0.92484281  0.07690737     0.37400
N3753       N  0.53883502  0.90938548  0.09197691    -0.89200
H3754       H  0.52480416  0.95027326  0.07162787     0.18500
H3755       H  0.60962583  0.92984528  0.05375208     0.18500
N3756       N  0.59645821  0.96994646  0.03290703    -0.88200
H3757       H  0.52137947  0.91611372  0.09379513     0.35900
H3758       H  0.54657232  0.90962076  0.10929006     0.41000
H3759       H  0.59680877  0.98742652  0.04002141     0.40600
H3760       H  0.58949356  0.97019483  0.01530059     0.35500
C3761       C  0.41887292  0.96585327  0.04358377    -0.26200
C3762       C  0.43766565  0.95374004  0.03187993    -0.14300
C3763       C  0.44235139  0.92948830  0.03791208     0.36300
C3764       C  0.42893674  0.91848054  0.05627106    -0.25700
C3765       C  0.41125147  0.93120239  0.06896043    -0.14900
C3766       C  0.40578966  0.95493809  0.06207458     0.37400
N3767       N  0.38758748  0.96856480  0.07409645    -0.89200
H3768       H  0.41554844  0.98461148  0.03954462     0.18500
H3769       H  0.43289240  0.90008690  0.06124821     0.18500
N3770       N  0.46137008  0.91599979  0.02683168    -0.88200
H3771       H  0.39213944  0.96979554  0.09244872     0.35900
H3772       H  0.37121639  0.95923729  0.07242267     0.41000
H3773       H  0.46974994  0.92590490  0.01327569     0.40600
H3774       H  0.45345202  0.90107866  0.01822114     0.35500
C3775       C  0.46423295  0.06958042  0.92263303    -0.26200
C3776       C  0.44986990  0.05457963  0.93702375    -0.14300
C3777       C  0.42477690  0.05845042  0.93815849     0.36300
C3778       C  0.41498350  0.07810752  0.92595700    -0.25700
C3779       C  0.42962509  0.09395136  0.91283663    -0.14900
C3780       C  0.45446595  0.08925260  0.91050418     0.37400
N3781       N  0.47026386  0.10399835  0.89629205    -0.89200
H3782       H  0.48356824  0.06682683  0.92203700     0.18500
H3783       H  0.39578629  0.08142626  0.92716478     0.18500
N3784       N  0.40900137  0.04391697  0.95260109    -0.88200
H3785       H  0.48271527  0.11217635  0.90810790     0.35900
H3786       H  0.46101641  0.11782538  0.88763855     0.41000
H3787       H  0.41819815  0.02982307  0.96084013     0.40600
H3788       H  0.39630049  0.03592601  0.94092358     0.35500
C3789       C  0.04755185  0.82262925  0.15276914    -0.26200
C3790       C  0.06371599  0.83901401  0.16372891    -0.14300
C3791       C  0.06870015  0.83757018  0.18867721     0.36300
C3792       C  0.05696746  0.82027855  0.20235161    -0.25700
C3793       C  0.04017289  0.80436853  0.19170910    -0.14900
C3794       C  0.03538890  0.80537319  0.16668126     0.37400
N3795       N  0.01765611  0.78964273  0.15576084    -0.89200
H3796       H  0.04409147  0.82371901  0.13349213     0.18500
H3797       H  0.06039571  0.81974234  0.22168188     0.18500
N3798       N  0.08553929  0.85348907  0.20053141    -0.88200
H3799       H  0.01639463  0.79276148  0.13717099     0.35900
H3800       H  0.00088919  0.79406558  0.16298594     0.41000
H3801       H  0.10227354  0.85176316  0.19216936     0.40600
H3802       H  0.07962345  0.87115688  0.19838283     0.35500
C3803       C  0.91475506  0.70341299  0.30503837    -0.26200
C3804       C  0.93258152  0.71823491  0.31571472    -0.14300
C3805       C  0.93992651  0.71391785  0.33981222     0.36300
C3806       C  0.93006234  0.69443681  0.35239215    -0.25700
C3807       C  0.91310055  0.67913219  0.34123388    -0.14900
C3808       C  0.90503161  0.68395224  0.31752656     0.37400
N3809       N  0.88701231  0.66929772  0.30578268    -0.89200
H3810       H  0.90908384  0.70625945  0.28647467     0.18500
H3811       H  0.93567811  0.69118949  0.37090319     0.18500
N3812       N  0.95736231  0.72925267  0.35155269    -0.88200
H3813       H  0.87137070  0.66969461  0.31615705     0.35900
H3814       H  0.89321030  0.65158169  0.30514115     0.41000
H3815       H  0.97191131  0.71865306  0.35702226     0.40600
H3816       H  0.94948287  0.73650923  0.36704783     0.35500
C3817       C  0.93641963  0.71256847  0.17534699    -0.26200
C3818       C  0.94807022  0.70105710  0.19462204    -0.14300
C3819       C  0.94155208  0.67721753  0.20057791     0.36300
C3820       C  0.92288207  0.66584106  0.18753825    -0.25700
C3821       C  0.91045553  0.67786701  0.16905779    -0.14900
C3822       C  0.91755225  0.70140509  0.16257537     0.37400
N3823       N  0.90596343  0.71457969  0.14345833    -0.89200
H3824       H  0.94102117  0.73106971  0.17116274     0.18500
H3825       H  0.91767664  0.64761857  0.19215812     0.18500
N3826       N  0.95272904  0.66446257  0.22019994    -0.88200
H3827       H  0.89786074  0.72965678  0.15124159     0.35900
H3828       H  0.89216038  0.70462880  0.13512448     0.41000
H3829       H  0.96660321  0.67462403  0.22820255     0.40600
H3830       H  0.96085695  0.64917048  0.21289924     0.35500
C3831       C  0.04055712  0.84026359  0.31012932    -0.26200
C3832       C  0.03628229  0.81558866  0.31363980    -0.14300
C3833       C  0.05316333  0.80220119  0.32733949     0.36300
C3834       C  0.07379164  0.81353788  0.33685563    -0.25700
C3835       C  0.07805917  0.83802173  0.33310455    -0.14900
C3836       C  0.06115479  0.85168188  0.31972774     0.37400
N3837       N  0.06417848  0.87706366  0.31563290    -0.89200
H3838       H  0.02801153  0.85074576  0.29944664     0.18500
H3839       H  0.08646405  0.80320086  0.34754781     0.18500
N3840       N  0.04994742  0.77690716  0.33109339    -0.88200
H3841       H  0.06559180  0.87956578  0.29697957     0.35900
H3842       H  0.08019190  0.88368079  0.32326822     0.41000
H3843       H  0.04942380  0.77388047  0.34972428     0.40600
H3844       H  0.06502413  0.76807900  0.32429178     0.35500
C3845       C  0.07440727  0.72574014  0.29275728    -0.26200
C3846       C  0.05671105  0.71120480  0.28156663    -0.14300
C3847       C  0.05471134  0.68679993  0.28778722     0.36300
C3848       C  0.06975725  0.67757401  0.30577081    -0.25700
C3849       C  0.08612616  0.69257721  0.31829787    -0.14900
C3850       C  0.08905563  0.71680977  0.31130321     0.37400
N3851       N  0.10573205  0.73301954  0.32322695    -0.89200
H3852       H  0.07551333  0.74469540  0.28835895     0.18500
H3853       H  0.06782475  0.65887750  0.31091397     0.18500
N3854       N  0.03651938  0.67151085  0.27721236    -0.88200
H3855       H  0.11832716  0.73854438  0.31042511     0.35900
H3856       H  0.11544231  0.72453143  0.33693889     0.41000
H3857       H  0.03873347  0.67156539  0.25845688     0.40600
H3858       H  0.01960749  0.67870013  0.28106568     0.35500
C3859       C  0.78120813  0.69348056  0.42501495    -0.26200
C3860       C  0.79008832  0.71297641  0.43897914    -0.14300
C3861       C  0.81489488  0.71354190  0.44530152     0.36300
C3862       C  0.82987692  0.69442635  0.43803204    -0.25700
C3863       C  0.82068890  0.67489462  0.42445172    -0.14900
C3864       C  0.79620436  0.67462534  0.41776518     0.37400
N3865       N  0.78655892  0.65527469  0.40333899    -0.89200
H3866       H  0.76227231  0.69255238  0.42003330     0.18500
H3867       H  0.84890503  0.69485052  0.44266776     0.18500
N3868       N  0.82466386  0.73295486  0.45972004    -0.88200
H3869       H  0.77253899  0.64722058  0.41293130     0.35900
H3870       H  0.77926235  0.66255436  0.38751650     0.41000
H3871       H  0.82402398  0.74849880  0.44920303     0.40600
H3872       H  0.84287770  0.73000577  0.46368184     0.35500
C3873       C  0.66857060  0.84850332  0.43518063    -0.26200
C3874       C  0.66590721  0.84315861  0.41055665    -0.14300
C3875       C  0.68211733  0.82710436  0.39928077     0.36300
C3876       C  0.69968507  0.81565333  0.41341570    -0.25700
C3877       C  0.70135064  0.81995047  0.43835040    -0.14900
C3878       C  0.68628045  0.83738212  0.44917875     0.37400
N3879       N  0.68789425  0.84354803  0.47447356    -0.89200
H3880       H  0.65672111  0.86147570  0.44359446     0.18500
H3881       H  0.71094071  0.80206199  0.40517378     0.18500
N3882       N  0.68094632  0.82157647  0.37385165    -0.88200
H3883       H  0.69157855  0.86199114  0.47571973     0.35900
H3884       H  0.70248997  0.83509422  0.48283198     0.41000
H3885       H  0.66711255  0.83088276  0.36516444     0.40600
H3886       H  0.67676040  0.80327773  0.37203743     0.35500
C3887       C  0.68764620  0.80343442  0.57837425    -0.26200
C3888       C  0.67515192  0.79362917  0.55830560    -0.14300
C3889       C  0.65238601  0.80307976  0.55191547     0.36300
C3890       C  0.64292649  0.82233772  0.56521710    -0.25700
C3891       C  0.65598640  0.83262263  0.58450598    -0.14900
C3892       C  0.67848424  0.82296433  0.59123221     0.37400
N3893       N  0.69256326  0.83297593  0.61075027    -0.89200
H3894       H  0.70534130  0.79682852  0.58334943     0.18500
H3895       H  0.62539482  0.82944471  0.56036348     0.18500
N3896       N  0.63893224  0.79340238  0.53181528    -0.88200
H3897       H  0.69583679  0.85113410  0.60707723     0.35900
H3898       H  0.68263632  0.83190779  0.62665355     0.41000
H3899       H  0.63595330  0.80728245  0.51949723     0.40600
H3900       H  0.62217303  0.78758005  0.53810963     0.35500
C3901       C  0.67993925  0.67726238  0.44724514    -0.26200
C3902       C  0.66966140  0.69823247  0.45700146    -0.14300
C3903       C  0.64739254  0.70650857  0.44769663     0.36300
C3904       C  0.63678681  0.69454555  0.42785587    -0.25700
C3905       C  0.64794308  0.67457313  0.41742347    -0.14900
C3906       C  0.66938978  0.66549008  0.42737777     0.37400
N3907       N  0.68005246  0.64412893  0.41742658    -0.89200
H3908       H  0.69696221  0.67068884  0.45423437     0.18500
H3909       H  0.61974739  0.70070067  0.42048978     0.18500
N3910       N  0.63584458  0.72713743  0.45814834    -0.88200
H3911       H  0.69559737  0.63952249  0.42713715     0.35900
H3912       H  0.68550067  0.64805950  0.39983612     0.41000
H3913       H  0.63118037  0.72270632  0.47584579     0.40600
H3914       H  0.61974541  0.73091142  0.44897494     0.35500
C3915       C  0.79412029  0.67723407  0.53148881    -0.26200
C3916       C  0.78778749  0.70001728  0.54041711    -0.14300
C3917       C  0.80316934  0.71184904  0.55726135     0.36300
C3918       C  0.82373751  0.70020653  0.56578098    -0.25700
C3919       C  0.82940093  0.67709238  0.55762033    -0.14900
C3920       C  0.81480234  0.66559586  0.53985717     0.37400
N3921       N  0.82008311  0.64206110  0.53037844    -0.89200
H3922       H  0.78284827  0.66829635  0.51800994     0.18500
H3923       H  0.83500080  0.70895406  0.57940362     0.18500
N3924       N  0.79829420  0.73584201  0.56543962    -0.88200
H3925       H  0.82291996  0.64382462  0.51180660     0.35900
H3926       H  0.83609257  0.63531032  0.53761327     0.41000
H3927       H  0.81302586  0.74676082  0.56107817     0.40600
H3928       H  0.79683371  0.73559075  0.58427235     0.35500
C3929       C  0.19967238  0.09216878  0.83381914    -0.26200
C3930       C  0.17479834  0.09345689  0.82982520    -0.14300
C3931       C  0.16458262  0.08303587  0.80873421     0.36300
C3932       C  0.17916668  0.06987407  0.79287617    -0.25700
C3933       C  0.20378553  0.06701419  0.79791954    -0.14900
C3934       C  0.21424900  0.07915317  0.81802885     0.37400
N3935       N  0.23970288  0.07801859  0.82262759    -0.89200
H3936       H  0.20771806  0.10091697  0.84953979     0.18500
H3937       H  0.17097981  0.06078343  0.77743305     0.18500
N3938       N  0.13928296  0.08517146  0.80384622    -0.88200
H3939       H  0.24238974  0.07069902  0.83980504     0.35900
H3940       H  0.24657985  0.09558347  0.82285486     0.41000
H3941       H  0.13188346  0.06784530  0.80258008     0.40600
H3942       H  0.13717311  0.09343932  0.78704802     0.35500
C3943       C  0.15974366  0.94594186  0.68578289    -0.26200
C3944       C  0.17088211  0.93360987  0.66675933    -0.14300
C3945       C  0.19501341  0.93883461  0.66096727     0.36300
C3946       C  0.20792739  0.95568719  0.67509141    -0.25700
C3947       C  0.19710945  0.96730413  0.69476590    -0.14900
C3948       C  0.17273978  0.96268404  0.70001940     0.37400
N3949       N  0.16183919  0.97380722  0.72070263    -0.89200
H3950       H  0.14109570  0.94191227  0.68992587     0.18500
H3951       H  0.22683964  0.95897078  0.67149168     0.18500
N3952       N  0.20628175  0.92685526  0.64096129    -0.88200
H3953       H  0.14398479  0.96797204  0.72246237     0.35900
H3954       H  0.16123077  0.99232012  0.71754011     0.41000
H3955       H  0.20743270  0.90858077  0.64513244     0.40600
H3956       H  0.22398506  0.93305353  0.63891474     0.35500
C3957       C  0.30695266  0.08070166  0.71401615    -0.26200
C3958       C  0.28969312  0.06631764  0.70195042    -0.14300
C3959       C  0.28833659  0.06618836  0.67655633     0.36300
C3960       C  0.30533171  0.07960770  0.66358695    -0.25700
C3961       C  0.32362902  0.09258300  0.67574088    -0.14900
C3962       C  0.32392961  0.09398086  0.70110263     0.37400
N3963       N  0.34206316  0.10810234  0.71351179    -0.89200
H3964       H  0.30795710  0.08050105  0.73360944     0.18500
H3965       H  0.30506297  0.07910975  0.64399441     0.18500
N3966       N  0.27069774  0.05147177  0.66413388    -0.88200
H3967       H  0.33997358  0.10686362  0.73221143     0.35900
H3968       H  0.33926216  0.12612304  0.70903059     0.41000
H3969       H  0.27468425  0.03348285  0.66775084     0.40600
H3970       H  0.27214070  0.05356422  0.64542814     0.35500
C3971       C  0.33434701  0.94764798  0.70396712    -0.26200
C3972       C  0.31001904  0.94323272  0.70940775    -0.14300
C3973       C  0.29623559  0.92805779  0.69381545     0.36300
C3974       C  0.30677940  0.91806784  0.67314420    -0.25700
C3975       C  0.33093900  0.92267216  0.66773261    -0.14900
C3976       C  0.34497639  0.93721788  0.68357319     0.37400
N3977       N  0.37003558  0.94167163  0.67926951    -0.89200
H3978       H  0.34511009  0.95942158  0.71552187     0.18500
H3979       H  0.29610831  0.90642871  0.66135812     0.18500
N3980       N  0.27123436  0.92343444  0.69832412    -0.88200
H3981       H  0.37902979  0.92521159  0.67919651     0.35900
H3982       H  0.37169733  0.94936890  0.66215996     0.41000
H3983       H  0.26880180  0.90483449  0.69979737     0.40600
H3984       H  0.26123828  0.92926118  0.68336732     0.35500
C3985       C  0.32844659  0.07502284  0.84518425    -0.26200
C3986       C  0.34019032  0.09142625  0.82997883    -0.14300
C3987       C  0.34267416  0.08563975  0.80521327     0.36300
C3988       C  0.33265364  0.06409329  0.79621839    -0.25700
C3989       C  0.32006222  0.04798068  0.81120075    -0.14900
C3990       C  0.31842826  0.05337207  0.83613196     0.37400
N3991       N  0.30659179  0.03692854  0.85215537    -0.89200
H3992       H  0.32742285  0.07904971  0.86434816     0.18500
H3993       H  0.33397266  0.06046520  0.77699931     0.18500
N3994       N  0.35543603  0.10091368  0.78872437    -0.88200
H3995       H  0.30687542  0.04362422  0.86987184     0.35900
H3996       H  0.31657827  0.02104003  0.85230268     0.41000
H3997       H  0.36264741  0.11612331  0.79734139     0.40600
H3998       H  0.34289430  0.10712494  0.77604317     0.35500
C3999       C  0.03353315  0.45526072  0.07232194    -0.26200
C4000       C  0.04884971  0.46963467  0.05813052    -0.14300
C4001       C  0.07304694  0.46271364  0.05518699     0.36300
C4002       C  0.08143042  0.44175358  0.06635156    -0.25700
C4003       C  0.06592413  0.42727441  0.07998481    -0.14900
C4004       C  0.04178740  0.43405326  0.08310598     0.37400
N4005       N  0.02575645  0.41923165  0.09695596    -0.89200
H4006       H  0.01469826  0.45994368  0.07414881     0.18500
H4007       H  0.10016839  0.43672886  0.06442244     0.18500
N4008       N  0.08912034  0.47682016  0.04084785    -0.88200
H4009       H  0.00842937  0.42652023  0.09709261     0.35900
H4010       H  0.03194022  0.41944329  0.11487759     0.41000
H4011       H  0.09565995  0.46584322  0.02698974     0.40600
H4012       H  0.10373681  0.48209266  0.05178231     0.35500
C4013       C  0.08448711  0.57148939  0.91910190    -0.26200
C4014       C  0.07122014  0.58789306  0.90528504    -0.14300
C4015       C  0.04763312  0.59405636  0.91226459     0.36300
C4016       C  0.03799336  0.58377159  0.93303423    -0.25700
C4017       C  0.05106977  0.56710471  0.94696819    -0.14900
C4018       C  0.07459671  0.56089806  0.93974051     0.37400
N4019       N  0.08856517  0.54396287  0.95323774    -0.89200
H4020       H  0.10277466  0.56713345  0.91398382     0.18500
H4021       H  0.01968623  0.58841132  0.93778860     0.18500
N4022       N  0.03299154  0.61067818  0.89885228    -0.88200
H4023       H  0.10455722  0.55247783  0.95884579     0.35900
H4024       H  0.09306560  0.52977788  0.94165420     0.41000
H4025       H  0.04152977  0.61668275  0.88327051     0.40600
H4026       H  0.03030428  0.62578822  0.90984226     0.35500
C4027       C  0.91474834  0.59977184  0.05334506    -0.26200
C4028       C  0.91188074  0.59417257  0.07776230    -0.14300
C4029       C  0.92887636  0.57954244  0.08958157     0.36300
C4030       C  0.94808095  0.57001219  0.07638282    -0.25700
C4031       C  0.95067722  0.57485848  0.05161896    -0.14900
C4032       C  0.93395587  0.59030105  0.04014686     0.37400
N4033       N  0.93575960  0.59572971  0.01493613    -0.89200
H4034       H  0.90190074  0.61147117  0.04447102     0.18500
H4035       H  0.96068386  0.55814655  0.08535995     0.18500
N4036       N  0.92612786  0.57385530  0.11474006    -0.88200
H4037       H  0.93706792  0.61441125  0.01317249     0.35900
H4038       H  0.91984160  0.59001584  0.00630654     0.41000
H4039       H  0.92868340  0.58971799  0.12471583     0.40600
H4040       H  0.93963650  0.56208000  0.12042211     0.35500
C4041       C  0.04020496  0.45500068  0.92109377    -0.26200
C4042       C  0.03004206  0.44668155  0.94262920    -0.14300
C4043       C  0.03887164  0.42546589  0.95316335     0.36300
C4044       C  0.05815613  0.41326287  0.94242439    -0.25700
C4045       C  0.06901748  0.42228007  0.92152713    -0.14900
C4046       C  0.05953118  0.44302206  0.91046211     0.37400
N4047       N  0.06966671  0.45260327  0.88880573    -0.89200
H4048       H  0.03415031  0.47183090  0.91340062     0.18500
H4049       H  0.06504328  0.39704443  0.95069176     0.18500
N4050       N  0.02915706  0.41709436  0.97550565    -0.88200
H4051       H  0.06858604  0.43938278  0.87529384     0.35900
H4052       H  0.08785627  0.45657695  0.89210434     0.41000
H4053       H  0.04316246  0.41662572  0.98828898     0.40600
H4054       H  0.02289968  0.39948617  0.97278758     0.35500
C4055       C  0.95087090  0.43743246  0.05546142    -0.26200
C4056       C  0.93781661  0.45491512  0.04277824    -0.14300
C4057       C  0.91422600  0.46061527  0.05006883     0.36300
C4058       C  0.90402602  0.44828650  0.06972610    -0.25700
C4059       C  0.91741255  0.43122496  0.08271661    -0.14900
C4060       C  0.94098908  0.42565805  0.07531167     0.37400
N4061       N  0.95532117  0.40828302  0.08781986    -0.89200
H4062       H  0.96937586  0.43372304  0.05057204     0.18500
H4063       H  0.88577205  0.45224220  0.07523977     0.18500
N4064       N  0.90105801  0.47927412  0.03796494    -0.88200
H4065       H  0.95711543  0.41375937  0.10587286     0.35900
H4066       H  0.94624516  0.39174827  0.08732415     0.41000
H4067       H  0.91012788  0.49554792  0.04123056     0.40600
H4068       H  0.88391989  0.48110139  0.04544862     0.35500
C4069       C  0.15484189  0.79468721  0.05490990    -0.26200
C4070       C  0.17905050  0.79103747  0.06169587    -0.14300
C4071       C  0.19016849  0.80735242  0.07827129     0.36300
C4072       C  0.17721550  0.82731482  0.08659006    -0.25700
C4073       C  0.15347478  0.83131119  0.07895346    -0.14900
C4074       C  0.14195271  0.81461554  0.06319237     0.37400
N4075       N  0.11743225  0.81740340  0.05497023    -0.89200
H4076       H  0.14609321  0.78249535  0.04214980     0.18500
H4077       H  0.18564610  0.83991084  0.09916826     0.18500
N4078       N  0.21487520  0.80437857  0.08573855    -0.88200
H4079       H  0.11775779  0.81946167  0.03619610     0.35900
H4080       H  0.10962614  0.83298286  0.06190373     0.41000
H4081       H  0.21565956  0.78895490  0.09643097     0.40600
H4082       H  0.22057113  0.81869867  0.09679457     0.35500
C4083       C  0.15935204  0.71201457  0.93645000    -0.26200
C4084       C  0.17556358  0.69835032  0.95039880    -0.14300
C4085       C  0.17964678  0.67414311  0.94374699     0.36300
C4086       C  0.16866731  0.66462072  0.92283776    -0.25700
C4087       C  0.15349114  0.67866417  0.90836203    -0.14900
C4088       C  0.14821570  0.70248605  0.91558708     0.37400
N4089       N  0.13192405  0.71754535  0.90222267    -0.89200
H4090       H  0.15593721  0.73062128  0.94119806     0.18500
H4091       H  0.17192571  0.64602285  0.91788335     0.18500
N4092       N  0.19492619  0.65910790  0.95810413    -0.88200
H4093       H  0.11724705  0.72119505  0.91335220     0.35900
H4094       H  0.12500925  0.70881691  0.88686883     0.41000
H4095       H  0.20886210  0.65288401  0.94715332     0.40600
H4096       H  0.18479337  0.64422089  0.96360034     0.35500
C4097       C  0.29844605  0.71201011  0.92058339    -0.26200
C4098       C  0.30022843  0.71506360  0.94568587    -0.14300
C4099       C  0.31531797  0.69978057  0.95933272     0.36300
C4100       C  0.32709740  0.68067839  0.94787384    -0.25700
C4101       C  0.32417413  0.67672878  0.92303967    -0.14900
C4102       C  0.31049441  0.69296287  0.90905149     0.37400
N4103       N  0.30853792  0.68964259  0.88330878    -0.89200
H4104       H  0.28641620  0.72340227  0.91027483     0.18500
H4105       H  0.33829507  0.66859903  0.95832941     0.18500
N4106       N  0.31738670  0.70300720  0.98510051    -0.88200
H4107       H  0.29792050  0.70312836  0.87565353     0.35900
H4108       H  0.29950466  0.67333963  0.88010589     0.41000
H4109       H  0.32552855  0.71976234  0.98829756     0.40600
H4110       H  0.32883945  0.69010785  0.99258439     0.35500
C4111       C  0.29463817  0.67215160  0.03569150    -0.26200
C4112       C  0.28238321  0.68803655  0.05121579    -0.14300
C4113       C  0.29063272  0.69082756  0.07527736     0.36300
C4114       C  0.31081775  0.67790913  0.08328418    -0.25700
C4115       C  0.32326142  0.66262537  0.06752782    -0.14900
C4116       C  0.31507984  0.65974413  0.04350977     0.37400
N4117       N  0.32733438  0.64449000  0.02671690    -0.89200
H4118       H  0.28897574  0.67011849  0.01697485     0.18500
H4119       H  0.31683457  0.67979628  0.10191099     0.18500
N4120       N  0.27857605  0.70667196  0.09164080    -0.88200
H4121       H  0.32758601  0.62701959  0.03358857     0.35900
H4122       H  0.34513526  0.65058856  0.02533541     0.41000
H4123       H  0.29108165  0.71950004  0.09786902     0.40600
H4124       H  0.27290488  0.69660509  0.10646774     0.35500
C4125       C  0.28413690  0.83162921  0.05343146    -0.26200
C4126       C  0.29554983  0.81440643  0.03890105    -0.14300
C4127       C  0.32081831  0.81199681  0.04028653     0.36300
C4128       C  0.33407483  0.82637514  0.05689457    -0.25700
C4129       C  0.32241191  0.84275612  0.07224726    -0.14900
C4130       C  0.29727160  0.84589314  0.06986609     0.37400
N4131       N  0.28464124  0.86327887  0.08408761    -0.89200
H4132       H  0.26468395  0.83338018  0.05260875     0.18500
H4133       H  0.35342639  0.82422901  0.05852373     0.18500
N4134       N  0.33273638  0.79435050  0.02561185    -0.88200
H4135       H  0.28689157  0.85913896  0.10235941     0.35900
H4136       H  0.29232766  0.88020041  0.08102158     0.41000
H4137       H  0.32684333  0.77735188  0.03110749     0.40600
H4138       H  0.35135496  0.79495198  0.02874972     0.35500
C4139       C  0.43183520  0.67988751  0.70987921    -0.26200
C4140       C  0.44671379  0.69717939  0.69899826    -0.14300
C4141       C  0.44457650  0.70127030  0.67392900     0.36300
C4142       C  0.42718278  0.68825474  0.66035254    -0.25700
C4143       C  0.41165810  0.67177068  0.67155357    -0.14900
C4144       C  0.41444509  0.66716033  0.69643960     0.37400
N4145       N  0.39956829  0.64993125  0.70851094    -0.89200
H4146       H  0.43311415  0.67696353  0.72920985     0.18500
H4147       H  0.42511108  0.69154141  0.64115692     0.18500
N4148       N  0.45917576  0.71938356  0.66263656    -0.88200
H4149       H  0.38156486  0.65507031  0.70653320     0.35900
H4150       H  0.40171661  0.63321153  0.70006344     0.41000
H4151       H  0.45426038  0.73606871  0.66984300     0.40600
H4152       H  0.45538381  0.72008369  0.64409852     0.35500
C4153       C  0.41519929  0.79972192  0.69370750    -0.26200
C4154       C  0.43183305  0.81338363  0.70758419    -0.14300
C4155       C  0.43809760  0.83683018  0.69991417     0.36300
C4156       C  0.42796331  0.84575091  0.67843452    -0.25700
C4157       C  0.41175741  0.83182567  0.66456136    -0.14900
C4158       C  0.40522206  0.80867544  0.67236827     0.37400
N4159       N  0.38827180  0.79406529  0.65907440    -0.89200
H4160       H  0.41039304  0.78159219  0.69901081     0.18500
H4161       H  0.43223874  0.86388414  0.67270378     0.18500
N4162       N  0.45463667  0.85148733  0.71386684    -0.88200
H4163       H  0.39486415  0.79154562  0.64160334     0.35900
H4164       H  0.37196377  0.80331986  0.65783821     0.41000
H4165       H  0.44652890  0.85516461  0.73046285     0.40600
H4166       H  0.45748372  0.86806874  0.70550284     0.35500
C4167       C  0.44718708  0.70174475  0.83312566    -0.26200
C4168       C  0.43307221  0.71746004  0.81906811    -0.14300
C4169       C  0.40803845  0.71316353  0.81659555     0.36300
C4170       C  0.39801072  0.69261653  0.82717296    -0.25700
C4171       C  0.41248013  0.67648917  0.84008120    -0.14900
C4172       C  0.43717700  0.68129374  0.84344399     0.37400
N4173       N  0.45243370  0.66568848  0.85719786    -0.89200
H4174       H  0.46645695  0.70457587  0.83514900     0.18500
H4175       H  0.37881710  0.68910356  0.82544899     0.18500
N4176       N  0.39301808  0.72936397  0.80312344    -0.88200
H4177       H  0.45205707  0.64863294  0.84915498     0.35900
H4178       H  0.44548989  0.66429279  0.87464838     0.41000
H4179       H  0.39324518  0.74590075  0.81225677     0.40600
H4180       H  0.37510886  0.72335684  0.80289505     0.35500
C4181       C  0.56253854  0.71074532  0.81068177    -0.26200
C4182       C  0.54916263  0.70006997  0.79170297    -0.14300
C4183       C  0.54976753  0.67493214  0.78834778     0.36300
C4184       C  0.56288369  0.66087753  0.80493913    -0.25700
C4185       C  0.57507876  0.67164414  0.82467809    -0.14900
C4186       C  0.57556238  0.69683903  0.82711350     0.37400
N4187       N  0.58883110  0.70810901  0.84664226    -0.89200
H4188       H  0.56211117  0.73010706  0.81318516     0.18500
H4189       H  0.56311661  0.64147491  0.80292166     0.18500
N4190       N  0.53638862  0.66376307  0.76887340    -0.88200
H4191       H  0.58696553  0.72680400  0.84611577     0.35900
H4192       H  0.60711391  0.70453029  0.84404068     0.41000
H4193       H  0.51806003  0.66653534  0.77206737     0.40600
H4194       H  0.53898017  0.64514639  0.76889352     0.35500
C4195       C  0.56636889  0.81177462  0.71558872    -0.26200
C4196       C  0.55180698  0.79505660  0.70296131    -0.14300
C4197       C  0.55057396  0.79576817  0.67754933     0.36300
C4198       C  0.56250748  0.81450179  0.66541325    -0.25700
C4199       C  0.57568790  0.83218795  0.67834701    -0.14900
C4200       C  0.57825965  0.83027645  0.70351692     0.37400
N4201       N  0.59252996  0.84743167  0.71689934    -0.89200
H4202       H  0.56728384  0.81134749  0.73517940     0.18500
H4203       H  0.56116771  0.81567749  0.64589753     0.18500
N4204       N  0.53601405  0.77854613  0.66440940    -0.88200
H4205       H  0.60594128  0.83808928  0.72628322     0.35900
H4206       H  0.58142878  0.85571356  0.72961073     0.41000
H4207       H  0.54378598  0.76164525  0.66687900     0.40600
H4208       H  0.53657854  0.78200502  0.64586080     0.35500
C4209       C  0.18695322  0.15598722  0.41900529    -0.26200
C4210       C  0.16271125  0.16087506  0.41395158    -0.14300
C4211       C  0.14982591  0.17679191  0.42904088     0.36300
C4212       C  0.16171817  0.18774159  0.44860146    -0.25700
C4213       C  0.18629344  0.18372077  0.45328850    -0.14900
C4214       C  0.19899014  0.16726885  0.43851272     0.37400
N4215       N  0.22426824  0.16301839  0.44245950    -0.89200
H4216       H  0.19652890  0.14349606  0.40749567     0.18500
H4217       H  0.15180770  0.20038433  0.45965169     0.18500
N4218       N  0.12487012  0.18263209  0.42489864    -0.88200
H4219       H  0.23108910  0.15168801  0.42903325     0.35900
H4220       H  0.22602457  0.15371589  0.45874151     0.41000
H4221       H  0.11769632  0.17392407  0.40967710     0.40600
H4222       H  0.12399491  0.20105610  0.42130135     0.35500
C4223       C  0.28532137  0.17282373  0.55877352    -0.26200
C4224       C  0.27903312  0.19671290  0.56425293    -0.14300
C4225       C  0.29341297  0.20990680  0.58107656     0.36300
C4226       C  0.31370362  0.19917147  0.59166600    -0.25700
C4227       C  0.32009076  0.17560656  0.58561544    -0.14900
C4228       C  0.30565632  0.16225904  0.56918593     0.37400
N4229       N  0.31155514  0.13806961  0.56249522    -0.89200
H4230       H  0.27486571  0.16252483  0.54561955     0.18500
H4231       H  0.32460859  0.20929764  0.60459079     0.18500
N4232       N  0.28825799  0.23454898  0.58662923    -0.88200
H4233       H  0.31175083  0.12754258  0.57808832     0.35900
H4234       H  0.32887198  0.13810112  0.55519732     0.41000
H4235       H  0.30325245  0.24498631  0.58198975     0.40600
H4236       H  0.28585967  0.23608823  0.60530464     0.35500
C4237       C  0.32868007  0.31929563  0.56635690    -0.26200
C4238       C  0.31608031  0.33633095  0.58006219    -0.14300
C4239       C  0.29190476  0.34149860  0.57417898     0.36300
C4240       C  0.28041248  0.32871906  0.55552462    -0.25700
C4241       C  0.29264229  0.31094664  0.54240044    -0.14900
C4242       C  0.31710517  0.30639671  0.54755101     0.37400
N4243       N  0.32954710  0.28768889  0.53478636    -0.89200
H4244       H  0.34740317  0.31574108  0.57073564     0.18500
H4245       H  0.26145745  0.33193303  0.55190197     0.18500
N4246       N  0.27860656  0.35937288  0.58710219    -0.88200
H4247       H  0.34721767  0.28612780  0.54131757     0.35900
H4248       H  0.33080302  0.29291775  0.51671711     0.41000
H4249       H  0.28758083  0.37586795  0.58548125     0.40600
H4250       H  0.27841447  0.35470910  0.60538382     0.35500
C4251       C  0.18673779  0.34290611  0.42870651    -0.26200
C4252       C  0.17338931  0.33199174  0.40994655    -0.14300
C4253       C  0.17972841  0.30881796  0.40162130     0.36300
C4254       C  0.19829309  0.29654418  0.41342350    -0.25700
C4255       C  0.21044167  0.30665235  0.43347929    -0.14900
C4256       C  0.20512362  0.33050801  0.44073534     0.37400
N4257       N  0.21647187  0.34200190  0.46130955    -0.89200
H4258       H  0.18208987  0.36087088  0.43474595     0.18500
H4259       H  0.20195297  0.27811399  0.40811494     0.18500
N4260       N  0.16739478  0.29695829  0.38182694    -0.88200
H4261       H  0.22524253  0.35746070  0.45512990     0.35900
H4262       H  0.22982690  0.33127708  0.46896041     0.41000
H4263       H  0.15412626  0.30779320  0.37413911     0.40600
H4264       H  0.15857024  0.28185290  0.38874798     0.35500
C4265       C  0.31929166  0.19266672  0.46072997    -0.26200
C4266       C  0.30583787  0.21031100  0.44865586    -0.14300
C4267       C  0.30701157  0.21205558  0.42331731     0.36300
C4268       C  0.32098721  0.19540315  0.41043117    -0.25700
C4269       C  0.33360924  0.17713919  0.42248894    -0.14900
C4270       C  0.33344160  0.17624067  0.44791145     0.37400
N4271       N  0.34722657  0.15833213  0.46048011    -0.89200
H4272       H  0.31818671  0.19132232  0.48023620     0.18500
H4273       H  0.32153210  0.19617466  0.39087082     0.18500
N4274       N  0.29320258  0.22993321  0.41075081    -0.88200
H4275       H  0.34494420  0.15998009  0.47916205     0.35900
H4276       H  0.36545271  0.16174495  0.45714765     0.41000
H4277       H  0.27494493  0.22596185  0.41325916     0.40600
H4278       H  0.29621880  0.22883685  0.39214324     0.35500
C4279       C  0.15881761  0.31114141  0.52427828    -0.26200
C4280       C  0.17175334  0.29747754  0.54141417    -0.14300
C4281       C  0.17238159  0.30523713  0.56576797     0.36300
C4282       C  0.16079905  0.32665955  0.57218512    -0.25700
C4283       C  0.14849519  0.34048530  0.55494211    -0.14900
C4284       C  0.14732030  0.33258245  0.53067557     0.37400
N4285       N  0.13457110  0.34557004  0.51218730    -0.89200
H4286       H  0.15835073  0.30568848  0.50542833     0.18500
H4287       H  0.16106930  0.33257011  0.59091084     0.18500
N4288       N  0.18485728  0.29151134  0.58386805    -0.88200
H4289       H  0.14721579  0.35116842  0.49946764     0.35900
H4290       H  0.12665644  0.36114008  0.51904007     0.41000
H4291       H  0.17589132  0.27498256  0.58534835     0.40600
H4292       H  0.18380333  0.29992859  0.60078592     0.35500
C4293       C  0.17629116  0.45805593  0.16776352    -0.26200
C4294       C  0.17179048  0.46391887  0.19204521    -0.14300
C4295       C  0.15501058  0.44997535  0.20511252     0.36300
C4296       C  0.14354742  0.43026513  0.19383887    -0.25700
C4297       C  0.14874701  0.42420702  0.16986738    -0.14900
C4298       C  0.16501006  0.43840482  0.15663244     0.37400
N4299       N  0.17062027  0.43297593  0.13195908    -0.89200
H4300       H  0.18926312  0.46839358  0.15752715     0.18500
H4301       H  0.13067243  0.41956922  0.20382837     0.18500
N4302       N  0.15037897  0.45499881  0.23006224    -0.88200
H4303       H  0.15474383  0.43368120  0.12165616     0.35900
H4304       H  0.17731893  0.41545740  0.13109700     0.41000
H4305       H  0.15464819  0.43965414  0.23998804     0.40600
H4306       H  0.13190546  0.45809348  0.23188737     0.35500
C4307       C  0.31316768  0.54922708  0.14331124    -0.26200
C4308       C  0.32116666  0.57280188  0.14748943    -0.14300
C4309       C  0.30853948  0.58783252  0.16356614     0.36300
C4310       C  0.28875296  0.57875198  0.17597602    -0.25700
C4311       C  0.28112728  0.55480857  0.17270684    -0.14900
C4312       C  0.29325173  0.54005009  0.15576267     0.37400
N4313       N  0.28620066  0.51545457  0.15191006    -0.89200
H4314       H  0.32260916  0.53784643  0.13058985     0.18500
H4315       H  0.27979546  0.59030701  0.18889403     0.18500
N4316       N  0.31581927  0.61227421  0.16796870    -0.88200
H4317       H  0.30092210  0.50453434  0.15612011     0.35900
H4318       H  0.28209878  0.51310523  0.13355054     0.41000
H4319       H  0.31496883  0.62163683  0.15166649     0.40600
H4320       H  0.33370448  0.61237368  0.17413090     0.35500
C4321       C  0.29877030  0.58579444  0.33020661    -0.26200
C4322       C  0.32284351  0.59045291  0.32421236    -0.14300
C4323       C  0.33432932  0.57581545  0.30674365     0.36300
C4324       C  0.32113464  0.55729919  0.29525316    -0.25700
C4325       C  0.29688200  0.55310324  0.30082532    -0.14900
C4326       C  0.28563727  0.56730133  0.31859261     0.37400
N4327       N  0.26056507  0.56353706  0.32388374    -0.89200
H4328       H  0.29015634  0.59688042  0.34376363     0.18500
H4329       H  0.32953460  0.54688189  0.28103566     0.18500
N4330       N  0.35904245  0.57945546  0.29989497    -0.88200
H4331       H  0.25482285  0.57578616  0.33702471     0.35900
H4332       H  0.25883193  0.54639301  0.33135631     0.41000
H4333       H  0.36714763  0.59361335  0.30950434     0.40600
H4334       H  0.35909456  0.58439594  0.28168848     0.35500
C4335       C  0.18175901  0.43974526  0.33980958    -0.26200
C4336       C  0.16645726  0.42379888  0.32700339    -0.14300
C4337       C  0.16901098  0.42113895  0.30171646     0.36300
C4338       C  0.18607708  0.43526090  0.28982535    -0.25700
C4339       C  0.20062740  0.45194726  0.30243556    -0.14900
C4340       C  0.19868182  0.45414076  0.32767899     0.37400
N4341       N  0.21320976  0.47148204  0.34070116    -0.89200
H4342       H  0.17990225  0.44146937  0.35923032     0.18500
H4343       H  0.18739777  0.43386289  0.27032260     0.18500
N4344       N  0.15465557  0.40451242  0.28754734    -0.88200
H4345       H  0.20964191  0.47068475  0.35920829     0.35900
H4346       H  0.20802597  0.48860613  0.33501434     0.41000
H4347       H  0.14320990  0.39420447  0.29825451     0.40600
H4348       H  0.14366126  0.41458460  0.27604255     0.35500
C4349       C  0.20445200  0.59448521  0.29364981    -0.26200
C4350       C  0.18885122  0.57999018  0.27946868    -0.14300
C4351       C  0.16391305  0.57990132  0.28425362     0.36300
C4352       C  0.15531624  0.59321987  0.30395674    -0.25700
C4353       C  0.17115620  0.60651213  0.31886717    -0.14900
C4354       C  0.19585043  0.60761834  0.31332672     0.37400
N4355       N  0.21250826  0.62174831  0.32749707    -0.89200
H4356       H  0.22368927  0.59451888  0.29035178     0.18500
H4357       H  0.13621249  0.59309442  0.30792095     0.18500
N4358       N  0.14755629  0.56596051  0.26938447    -0.88200
H4359       H  0.21221137  0.61557489  0.34529106     0.35900
H4360       H  0.20670692  0.63960936  0.32741105     0.41000
H4361       H  0.14798946  0.57315586  0.25197668     0.40600
H4362       H  0.12985642  0.56777178  0.27545291     0.35500
C4363       C  0.32279424  0.45768590  0.20935844    -0.26200
C4364       C  0.29874650  0.44984449  0.21043481    -0.14300
C4365       C  0.29062948  0.43100200  0.19511932     0.36300
C4366       C  0.30636360  0.42121229  0.17807417    -0.25700
C4367       C  0.32991245  0.43007998  0.17593934    -0.14900
C4368       C  0.33849986  0.44803457  0.19202938     0.37400
N4369       N  0.36283254  0.45682391  0.19015652    -0.89200
H4370       H  0.32874678  0.47259446  0.22070745     0.18500
H4371       H  0.30011283  0.40705277  0.16593488     0.18500
N4372       N  0.26601225  0.42280079  0.19620718    -0.88200
H4373       H  0.36630250  0.47004743  0.20329730     0.35900
H4374       H  0.36443038  0.46520429  0.17337482     0.41000
H4375       H  0.26346083  0.41524090  0.21325810     0.40600
H4376       H  0.26278803  0.40909701  0.18351308     0.35500
C4377       C  0.91402478  0.19158050  0.81134984    -0.26200
C4378       C  0.92568205  0.17373832  0.82492439    -0.14300
C4379       C  0.95104782  0.17404408  0.82701214     0.36300
C4380       C  0.96428591  0.19095693  0.81411933    -0.25700
C4381       C  0.95274806  0.20809933  0.79963173    -0.14900
C4382       C  0.92737012  0.20891219  0.79868084     0.37400
N4383       N  0.91533368  0.22666621  0.78423342    -0.89200
H4384       H  0.89449939  0.19166171  0.81034926     0.18500
H4385       H  0.98381770  0.19042469  0.81501210     0.18500
N4386       N  0.96376435  0.15764834  0.84233575    -0.88200
H4387       H  0.89662996  0.22489978  0.78575724     0.35900
H4388       H  0.91940387  0.22320328  0.76612364     0.41000
H4389       H  0.95716876  0.15945397  0.85989417     0.40600
H4390       H  0.96045597  0.14007636  0.83633449     0.35500
C4391       C  0.81818038  0.19412127  0.89636255    -0.26200
C4392       C  0.83566184  0.18159726  0.90961762    -0.14300
C4393       C  0.84265460  0.19014255  0.93278746     0.36300
C4394       C  0.83164579  0.21073562  0.94221307    -0.25700
C4395       C  0.81341451  0.22297713  0.92940667    -0.14900
C4396       C  0.80692978  0.21457092  0.90600842     0.37400
N4397       N  0.78876302  0.22644868  0.89200834    -0.89200
H4398       H  0.81317529  0.18790218  0.87837160     0.18500
H4399       H  0.83696380  0.21665398  0.96020462     0.18500
N4400       N  0.86092528  0.17861326  0.94718194    -0.88200
H4401       H  0.77505725  0.21398399  0.88803899     0.35900
H4402       H  0.79643932  0.23180775  0.87569504     0.41000
H4403       H  0.86802977  0.16357238  0.93848534     0.40600
H4404       H  0.85270943  0.17233883  0.96288642     0.35500
C4405       C  0.57822292  0.96685223  0.90987363    -0.26200
C4406       C  0.57391607  0.94242728  0.90469446    -0.14300
C4407       C  0.54910467  0.93514767  0.90544869     0.36300
C4408       C  0.53338410  0.94740973  0.92091033    -0.25700
C4409       C  0.54076402  0.96886349  0.93209904    -0.14900
C4410       C  0.56237913  0.97985353  0.92435127     0.37400
N4411       N  0.56850759  0.00402898  0.93142532    -0.89200
H4412       H  0.59423212  0.97586908  0.90348075     0.18500
H4413       H  0.51532288  0.94047358  0.92368208     0.18500
N4414       N  0.53825834  0.91907587  0.88797066    -0.88200
H4415       H  0.57076827  0.01421810  0.91577050     0.35900
H4416       H  0.58502612  0.00370151  0.94069060     0.41000
H4417       H  0.55014427  0.91447056  0.87420625     0.40600
H4418       H  0.53178134  0.90373904  0.89665676     0.35500
C4419       C  0.55932257  0.82150564  0.85152203    -0.26200
C4420       C  0.56931516  0.84213451  0.84116446    -0.14300
C4421       C  0.55805251  0.85252623  0.82087090     0.36300
C4422       C  0.53808678  0.84091753  0.81005780    -0.25700
C4423       C  0.52900737  0.81916305  0.81925901    -0.14900
C4424       C  0.53911069  0.81010829  0.84098062     0.37400
N4425       N  0.52936281  0.78902939  0.85212572    -0.89200
H4426       H  0.56756320  0.81391201  0.86756880     0.18500
H4427       H  0.53047260  0.84828165  0.79361088     0.18500
N4428       N  0.56755942  0.87437830  0.81082615    -0.88200
H4429       H  0.52436828  0.79359204  0.86973903     0.35900
H4430       H  0.54299615  0.77615519  0.85319834     0.41000
H4431       H  0.56545002  0.88802686  0.82372606     0.40600
H4432       H  0.55751431  0.87945913  0.79562547     0.35500
C4433       C  0.82389133  0.56313144  0.78307402    -0.26200
C4434       C  0.80491065  0.54930367  0.79246010    -0.14300
C4435       C  0.79694453  0.55370809  0.81622547     0.36300
C4436       C  0.80801662  0.57215184  0.82997554    -0.25700
C4437       C  0.82622253  0.58655682  0.82005184    -0.14900
C4438       C  0.83459883  0.58176533  0.79661338     0.37400
N4439       N  0.85362672  0.59615701  0.78656560    -0.89200
H4440       H  0.82961309  0.56004518  0.76462880     0.18500
H4441       H  0.80212965  0.57571949  0.84827027     0.18500
N4442       N  0.77693228  0.54036949  0.82580879    -0.88200
H4443       H  0.85729612  0.59060506  0.76888483     0.35900
H4444       H  0.86928854  0.59304876  0.79670382     0.41000
H4445       H  0.76158230  0.54481766  0.81570058     0.40600
H4446       H  0.77354180  0.54574368  0.84360312     0.35500
C4447       C  0.93426439  0.57315867  0.90227496    -0.26200
C4448       C  0.91159998  0.58036636  0.91042776    -0.14300
C4449       C  0.90000253  0.56713540  0.92880967     0.36300
C4450       C  0.91218771  0.54797612  0.93968013    -0.25700
C4451       C  0.93555806  0.54182773  0.93264581    -0.14900
C4452       C  0.94632525  0.55393377  0.91301874     0.37400
N4453       N  0.97006237  0.54811231  0.90458332    -0.89200
H4454       H  0.94279931  0.58283351  0.88767148     0.18500
H4455       H  0.90416064  0.53918852  0.95511640     0.18500
N4456       N  0.87634396  0.57302636  0.93739133    -0.88200
H4457       H  0.96841984  0.54313089  0.88637494     0.35900
H4458       H  0.97691880  0.53306868  0.91345863     0.41000
H4459       H  0.86889361  0.58748979  0.92807763     0.40600
H4460       H  0.87813710  0.57849265  0.95545089     0.35500
C4461       C  0.91817031  0.90709749  0.55984638    -0.26200
C4462       C  0.90340950  0.92093181  0.57493135    -0.14300
C4463       C  0.89911607  0.94532106  0.56934690     0.36300
C4464       C  0.91059975  0.95550999  0.54946243    -0.25700
C4465       C  0.92654111  0.94212290  0.53518230    -0.14900
C4466       C  0.92981219  0.91745725  0.53996875     0.37400
N4467       N  0.94512708  0.90318379  0.52482096    -0.89200
H4468       H  0.92062552  0.88817184  0.56370010     0.18500
H4469       H  0.90806451  0.97451590  0.54604690     0.18500
N4470       N  0.88327947  0.96026384  0.58329339    -0.88200
H4471       H  0.93734259  0.90273561  0.50753133     0.35900
H4472       H  0.94561230  0.88539240  0.53083849     0.41000
H4473       H  0.87533359  0.95089678  0.59745162     0.40600
H4474       H  0.89373879  0.97399333  0.59117889     0.35500
C4475       C  0.82331279  0.82155574  0.56321970    -0.26200
C4476       C  0.81087522  0.83917883  0.57625543    -0.14300
C4477       C  0.78723405  0.84557270  0.56924222     0.36300
C4478       C  0.77630250  0.83338730  0.54983840    -0.25700
C4479       C  0.78836194  0.81505038  0.53739837    -0.14900
C4480       C  0.81232015  0.80924623  0.54391989     0.37400
N4481       N  0.82547545  0.79014341  0.53247188    -0.89200
H4482       H  0.84161150  0.81701502  0.56844751     0.18500
H4483       H  0.75770198  0.83737189  0.54523654     0.18500
N4484       N  0.77380486  0.86405776  0.58135735    -0.88200
H4485       H  0.84074816  0.79779437  0.52458979     0.35900
H4486       H  0.81559937  0.78210191  0.51841510     0.41000
H4487       H  0.78375542  0.87212983  0.59535151     0.40600
H4488       H  0.75885452  0.85585559  0.58930971     0.35500
C4489       C  0.80103604  0.92986867  0.19838753    -0.26200
C4490       C  0.80459052  0.95476070  0.20084192    -0.14300
C4491       C  0.82180790  0.96647533  0.18623406     0.36300
C4492       C  0.83434711  0.95339481  0.16885887    -0.25700
C4493       C  0.82981702  0.92882243  0.16546350    -0.14900
C4494       C  0.81354662  0.91677569  0.18083041     0.37400
N4495       N  0.80869221  0.89153411  0.17822841    -0.89200
H4496       H  0.78743822  0.92087839  0.20906405     0.18500
H4497       H  0.84716328  0.96257806  0.15740792     0.18500
N4498       N  0.82634992  0.99183877  0.18823683    -0.88200
H4499       H  0.82476894  0.88220299  0.18097135     0.35900
H4500       H  0.80268120  0.88821537  0.16053101     0.41000
H4501       H  0.83119540  0.99577330  0.20615620     0.40600
H4502       H  0.81055374  0.00111389  0.18402202     0.35500
C4503       C  0.90814418  0.81303093  0.20054304    -0.26200
C4504       C  0.93199286  0.81869157  0.20743128    -0.14300
C4505       C  0.94588310  0.83395712  0.19230502     0.36300
C4506       C  0.93562949  0.84327375  0.17128442    -0.25700
C4507       C  0.91182447  0.83785386  0.16479995    -0.14900
C4508       C  0.89788695  0.82260141  0.17940027     0.37400
N4509       N  0.87327133  0.81730870  0.17282151    -0.89200
H4510       H  0.89756216  0.80095538  0.21157226     0.18500
H4511       H  0.94615179  0.85532572  0.16015204     0.18500
N4512       N  0.97068245  0.83974171  0.19716965    -0.88200
H4513       H  0.86539318  0.80595286  0.18555338     0.35900
H4514       H  0.87342552  0.80778084  0.15645950     0.41000
H4515       H  0.98052857  0.82380725  0.19797927     0.40600
H4516       H  0.97200002  0.84898327  0.21365029     0.35500
C4517       C  0.17007904  0.95239737  0.83963730    -0.26200
C4518       C  0.16370632  0.92872400  0.83348108    -0.14300
C4519       C  0.17857644  0.91544243  0.81781101     0.36300
C4520       C  0.19939287  0.92608366  0.80845196    -0.25700
C4521       C  0.20606867  0.94981382  0.81467007    -0.14900
C4522       C  0.19108915  0.96303568  0.83049403     0.37400
N4523       N  0.19671268  0.98746963  0.83691218    -0.89200
H4524       H  0.15895526  0.96247441  0.85207201     0.18500
H4525       H  0.21032424  0.91573425  0.79607632     0.18500
N4526       N  0.17293415  0.89105460  0.81124522    -0.88200
H4527       H  0.19826363  0.98859297  0.85574142     0.35900
H4528       H  0.18228212  0.99825848  0.83150178     0.41000
H4529       H  0.15578299  0.89067514  0.80323043     0.40600
H4530       H  0.17242425  0.88075432  0.82697922     0.35500
C4531       C  0.16505627  0.84612242  0.95026258    -0.26200
C4532       C  0.16528653  0.84691051  0.92499136    -0.14300
C4533       C  0.18403596  0.83538694  0.91227556     0.36300
C4534       C  0.20122108  0.82181675  0.92510733    -0.25700
C4535       C  0.19955471  0.81924832  0.95020273    -0.14900
C4536       C  0.18181366  0.83220689  0.96300401     0.37400
N4537       N  0.18025881  0.83023848  0.98887548    -0.89200
H4538       H  0.15102956  0.85551489  0.95995571     0.18500
H4539       H  0.21474429  0.81177810  0.91535701     0.18500
N4540       N  0.18496401  0.83676834  0.88635310    -0.88200
H4541       H  0.16598749  0.84048407  0.99548684     0.35900
H4542       H  0.19608481  0.83759286  0.99633722     0.41000
H4543       H  0.16960217  0.82809241  0.87936123     0.40600
H4544       H  0.19985003  0.82740154  0.87980059     0.35500
C4545       C  0.93513261  0.91857943  0.73649262    -0.26200
C4546       C  0.93298756  0.94355983  0.74005861    -0.14300
C4547       C  0.91890269  0.95692798  0.72354667     0.36300
C4548       C  0.90665983  0.94508503  0.70453651    -0.25700
C4549       C  0.90833750  0.92011092  0.70153057    -0.14900
C4550       C  0.92301272  0.90675666  0.71735649     0.37400
N4551       N  0.92515916  0.88117817  0.71410715    -0.89200
H4552       H  0.94586321  0.90809777  0.74897263     0.18500
H4553       H  0.89553696  0.95538633  0.69221234     0.18500
N4554       N  0.91721047  0.98254958  0.72573632    -0.88200
H4555       H  0.93646519  0.87393401  0.72738971     0.35900
H4556       H  0.93355402  0.87819686  0.69752061     0.41000
H4557       H  0.89900190  0.98696920  0.72739094     0.40600
H4558       H  0.92352660  0.99015118  0.70973948     0.35500
C4559       C  0.01213662  0.95693648  0.81799553    -0.26200
C4560       C  0.99703497  0.94273134  0.80299500    -0.14300
C4561       C  0.00253910  0.91791906  0.80017017     0.36300
C4562       C  0.02240909  0.90820739  0.81239802    -0.25700
C4563       C  0.03710919  0.92241641  0.82760877    -0.14900
C4564       C  0.03190371  0.94716985  0.83039763     0.37400
N4565       N  0.04558209  0.96278654  0.84629107    -0.89200
H4566       H  0.00839285  0.97589792  0.82049590     0.18500
H4567       H  0.02613957  0.88917301  0.81044128     0.18500
N4568       N  0.98798458  0.90179809  0.78582608    -0.88200
H4569       H  0.05418335  0.97562206  0.83559280     0.35900
H4570       H  0.05906595  0.95364530  0.85565508     0.41000
H4571       H  0.98870576  0.90707862  0.76775423     0.40600
H4572       H  0.97021955  0.90244159  0.79192724     0.35500
C4573       C  0.90182150  0.03230633  0.81444891    -0.26200
C4574       C  0.91728991  0.04820409  0.82690241    -0.14300
C4575       C  0.94223055  0.04331257  0.82779087     0.36300
C4576       C  0.95115231  0.02285143  0.81601494    -0.25700
C4577       C  0.93571041  0.00688384  0.80331508    -0.14900
C4578       C  0.91060700  0.01181916  0.80275529     0.37400
N4579       N  0.89335250  0.99599195  0.79142326    -0.89200
H4580       H  0.88259318  0.03570760  0.81412379     0.18500
H4581       H  0.97034536  0.01938024  0.81691250     0.18500
N4582       N  0.95874441  0.05835602  0.84115720    -0.88200
H4583       H  0.89544860  0.97872342  0.79847894     0.35900
H4584       H  0.89633194  0.99566552  0.77281701     0.41000
H4585       H  0.95300350  0.05925937  0.85909148     0.40600
H4586       H  0.95831143  0.07565680  0.83393767     0.35500
C4587       C  0.94905289  0.73675525  0.91916290    -0.26200
C4588       C  0.94076543  0.74457115  0.94189429    -0.14300
C4589       C  0.92180521  0.73144856  0.95276737     0.36300
C4590       C  0.91000786  0.71292849  0.93982909    -0.25700
C4591       C  0.91732231  0.70635968  0.91656370    -0.14900
C4592       C  0.93777019  0.71758972  0.90656808     0.37400
N4593       N  0.94707454  0.70941355  0.88378193    -0.89200
H4594       H  0.96402498  0.74593269  0.91079681     0.18500
H4595       H  0.89487199  0.70368659  0.94795214     0.18500
N4596       N  0.91450786  0.73654942  0.97701283    -0.88200
H4597       H  0.96266753  0.71903692  0.87936999     0.35900
H4598       H  0.93435529  0.71318238  0.87031260     0.41000
H4599       H  0.91704611  0.72101685  0.98725662     0.40600
H4600       H  0.89603961  0.74021907  0.97670317     0.35500
C4601       C  0.94895701  0.82503269  0.01791127    -0.26200
C4602       C  0.93538721  0.81189622  0.00066435    -0.14300
C4603       C  0.90984504  0.81199091  0.00227068     0.36300
C4604       C  0.89872735  0.82465578  0.02100204    -0.25700
C4605       C  0.91236788  0.83752180  0.03822427    -0.14900
C4606       C  0.93766181  0.83780737  0.03658300     0.37400
N4607       N  0.95186240  0.85141105  0.05365174    -0.89200
H4608       H  0.96846272  0.82543698  0.01689839     0.18500
H4609       H  0.87921598  0.82467418  0.02201447     0.18500
N4610       N  0.89459249  0.80034934  0.98467712    -0.88200
H4611       H  0.96206592  0.86398040  0.04409617     0.35900
H4612       H  0.96376823  0.83963512  0.06222501     0.41000
H4613       H  0.89730061  0.78184715  0.98558152     0.40600
H4614       H  0.89918596  0.80650340  0.96749143     0.35500
C4615       C  0.01388021  0.82859743  0.95455144    -0.26200
C4616       C  0.00081380  0.81127761  0.94090780    -0.14300
C4617       C  0.00747005  0.80736698  0.91641518     0.36300
C4618       C  0.02625002  0.82080564  0.90638082    -0.25700
C4619       C  0.03889360  0.83811555  0.92000261    -0.14900
C4620       C  0.03279553  0.84193332  0.94431485     0.37400
N4621       N  0.04548370  0.85968253  0.95847375    -0.89200
H4622       H  0.00931108  0.83200806  0.97326170     0.18500
H4623       H  0.03088792  0.81790329  0.88759397     0.18500
N4624       N  0.99523911  0.79047596  0.90088565    -0.88200
H4625       H  0.05303769  0.85113160  0.97349692     0.35900
H4626       H  0.03295662  0.87219811  0.96470385     0.41000
H4627       H  0.97686988  0.79455788  0.90037510     0.40600
H4628       H  0.99782762  0.77317903  0.90764883     0.35500
C4629       C  0.80061403  0.02293377  0.91430322    -0.26200
C4630       C  0.80607359  0.01763414  0.93862953    -0.14300
C4631       C  0.82339270  0.03210007  0.95097367     0.36300
C4632       C  0.83516347  0.05085918  0.93875354    -0.25700
C4633       C  0.83004062  0.05551434  0.91438307    -0.14900
C4634       C  0.81243032  0.04151441  0.90215344     0.37400
N4635       N  0.80636645  0.04571386  0.87730414    -0.89200
H4636       H  0.78742660  0.01223896  0.90433722     0.18500
H4637       H  0.84869246  0.06159074  0.94821538     0.18500
N4638       N  0.82904763  0.02800875  0.97591563    -0.88200
H4639       H  0.82188776  0.04356210  0.86695927     0.35900
H4640       H  0.80060409  0.06350481  0.87566485     0.41000
H4641       H  0.82551498  0.04381915  0.98556491     0.40600
H4642       H  0.84750822  0.02453353  0.97737807     0.35500
C4643       C  0.73803062  0.96061333  0.91151058    -0.26200
C4644       C  0.74155710  0.95624922  0.93632015    -0.14300
C4645       C  0.72513343  0.94099235  0.94830694     0.36300
C4646       C  0.70607632  0.93014790  0.93532430    -0.25700
C4647       C  0.70272651  0.93442960  0.91057509    -0.14900
C4648       C  0.71884021  0.95003843  0.89851503     0.37400
N4649       N  0.71652926  0.95539039  0.87318210    -0.89200
H4650       H  0.75047896  0.97213977  0.90191814     0.18500
H4651       H  0.69370819  0.91830387  0.94464868     0.18500
N4652       N  0.72740022  0.93671021  0.97372961    -0.88200
H4653       H  0.71354438  0.97387336  0.87165557     0.35900
H4654       H  0.70156156  0.94686793  0.86530296     0.41000
H4655       H  0.72909123  0.91817430  0.97629173     0.40600
H4656       H  0.71147726  0.94224705  0.98199968     0.35500
C4657       C  0.81183574  0.91717977  0.02386434    -0.26200
C4658       C  0.82791239  0.92976234  0.03901131    -0.14300
C4659       C  0.83168867  0.95459284  0.03549617     0.36300
C4660       C  0.81960046  0.96626530  0.01640062    -0.25700
C4661       C  0.80375562  0.95357968  0.00078081    -0.14900
C4662       C  0.79970683  0.92875441  0.00492964     0.37400
N4663       N  0.78386097  0.91490440  0.98959466    -0.89200
H4664       H  0.80889527  0.89809336  0.02660762     0.18500
H4665       H  0.82271230  0.98530656  0.01362565     0.18500
N4666       N  0.84789688  0.96774288  0.05122321    -0.88200
H4667       H  0.77047068  0.90728911  0.00036265     0.35900
H4668       H  0.79376273  0.90091578  0.98188763     0.41000
H4669       H  0.86521150  0.96090758  0.04865246     0.40600
H4670       H  0.84854982  0.98587965  0.04636641     0.35500
C4671       C  0.81232888  0.73497130  0.79455778    -0.26200
C4672       C  0.79813952  0.75055875  0.80860445    -0.14300
C4673       C  0.79712749  0.74678632  0.83391957     0.36300
C4674       C  0.80993333  0.72753900  0.84432527    -0.25700
C4675       C  0.82408254  0.71218471  0.83018788    -0.14900
C4676       C  0.82527241  0.71601829  0.80510598     0.37400
N4677       N  0.83983813  0.70077632  0.79032217    -0.89200
H4678       H  0.81348168  0.73749433  0.77519369     0.18500
H4679       H  0.80918775  0.72465243  0.86366102     0.18500
N4680       N  0.78370936  0.76279733  0.84913867    -0.88200
H4681       H  0.82868774  0.69279957  0.77714656     0.35900
H4682       H  0.85249174  0.71157697  0.78154701     0.41000
H4683       H  0.79214157  0.77966573  0.84856501     0.40600
H4684       H  0.78451583  0.75725944  0.86715593     0.35500
C4685       C  0.73033673  0.83763672  0.80074228    -0.26200
C4686       C  0.73407576  0.81332610  0.80678825    -0.14300
C4687       C  0.71764938  0.80224192  0.82293369     0.36300
C4688       C  0.69860702  0.81562870  0.83267907    -0.25700
C4689       C  0.69557257  0.83999770  0.82702878    -0.14900
C4690       C  0.71145638  0.85094070  0.81075534     0.37400
N4691       N  0.70865917  0.87578844  0.80469540    -0.89200
H4692       H  0.74247138  0.84671471  0.78851464     0.18500
H4693       H  0.68649633  0.80714359  0.84535801     0.18500
N4694       N  0.71955571  0.77750956  0.82970947    -0.88200
H4695       H  0.70645121  0.87695797  0.78594374     0.35900
H4696       H  0.72457917  0.88487629  0.80950911     0.41000
H4697       H  0.73564721  0.77515100  0.83932209     0.40600
H4698       H  0.71964790  0.76688782  0.81403502     0.35500
C4699       C  0.78344653  0.83070611  0.73231322    -0.26200
C4700       C  0.79513039  0.81075321  0.74272960    -0.14300
C4701       C  0.81697871  0.80276181  0.73225801     0.36300
C4702       C  0.82671014  0.81529018  0.71252265    -0.25700
C4703       C  0.81537036  0.83560508  0.70294562    -0.14900
C4704       C  0.79316915  0.84313014  0.71265372     0.37400
N4705       N  0.78027033  0.86357415  0.70351469    -0.89200
H4706       H  0.76662259  0.83712461  0.73967142     0.18500
H4707       H  0.84364329  0.80952253  0.70484747     0.18500
N4708       N  0.82952429  0.78225854  0.74169302    -0.88200
H4709       H  0.76371530  0.85732873  0.69668839     0.35900
H4710       H  0.78916686  0.87161224  0.68909605     0.41000
H4711       H  0.83691980  0.78730418  0.75845060     0.40600
H4712       H  0.84411838  0.77780586  0.73074498     0.35500
C4713       C  0.44613710  0.19594489  0.16528787    -0.26200
C4714       C  0.44869140  0.19383744  0.19046053    -0.14300
C4715       C  0.43091858  0.18117040  0.20350516     0.36300
C4716       C  0.41104121  0.17113546  0.19125784    -0.25700
C4717       C  0.40837735  0.17356779  0.16622116    -0.14900
C4718       C  0.42619738  0.18609451  0.15298279     0.37400
N4719       N  0.42473499  0.18914463  0.12718713    -0.89200
H4720       H  0.45951220  0.20578614  0.15507988     0.18500
H4721       H  0.39765198  0.16117655  0.20133991     0.18500
N4722       N  0.43247173  0.17909280  0.22928308    -0.88200
H4723       H  0.42404319  0.20761345  0.12380446     0.35900
H4724       H  0.40884350  0.18184663  0.11993243     0.41000
H4725       H  0.43241633  0.16080610  0.23359505     0.40600
H4726       H  0.41706304  0.18683939  0.23671309     0.35500
C4727       C  0.56171881  0.32961948  0.28323958    -0.26200
C4728       C  0.54540312  0.31529624  0.29615487    -0.14300
C4729       C  0.54612963  0.31556174  0.32171354     0.36300
C4730       C  0.56378368  0.32949923  0.33354482    -0.25700
C4731       C  0.58063379  0.34312526  0.32057591    -0.14900
C4732       C  0.57920650  0.34368975  0.29506781     0.37400
N4733       N  0.59497328  0.35824024  0.28062645    -0.89200
H4734       H  0.56124921  0.32936935  0.26362666     0.18500
H4735       H  0.56472970  0.32931592  0.35313334     0.18500
N4736       N  0.53043453  0.30102643  0.33624183    -0.88200
H4737       H  0.60573987  0.34662516  0.27051216     0.35900
H4738       H  0.60655349  0.36888171  0.29121736     0.41000
H4739       H  0.51853940  0.29065032  0.32578193     0.40600
H4740       H  0.51989825  0.31268682  0.34655358     0.35500
C4741       C  0.54232544  0.17555376  0.30004581    -0.26200
C4742       C  0.55631854  0.19133914  0.28605939    -0.14300
C4743       C  0.58076076  0.19545636  0.29249785     0.36300
C4744       C  0.59019189  0.18458097  0.31335943    -0.25700
C4745       C  0.57573896  0.16968160  0.32765147    -0.14900
C4746       C  0.55174368  0.16481867  0.32067447     0.37400
N4747       N  0.53666637  0.14879064  0.33408406    -0.89200
H4748       H  0.52352221  0.17220960  0.29559175     0.18500
H4749       H  0.60895557  0.18737531  0.31835286     0.18500
N4750       N  0.59581191  0.21068364  0.27801515    -0.88200
H4751       H  0.54495439  0.13196793  0.33480620     0.35900
H4752       H  0.53511224  0.15546118  0.35169918     0.41000
H4753       H  0.59746942  0.20241506  0.26108056     0.40600
H4754       H  0.61320272  0.21191327  0.28541852     0.35500
C4755       C  0.59173080  0.31644788  0.17266988    -0.26200
C4756       C  0.57777124  0.33093083  0.15742822    -0.14300
C4757       C  0.55371991  0.32433494  0.15190954     0.36300
C4758       C  0.54399222  0.30377379  0.16249096    -0.25700
C4759       C  0.55742571  0.28985723  0.17892231    -0.14900
C4760       C  0.58186597  0.29590313  0.18348002     0.37400
N4761       N  0.59643923  0.28148445  0.19931569    -0.89200
H4762       H  0.61043636  0.32126138  0.17608968     0.18500
H4763       H  0.52522239  0.29951142  0.15874287     0.18500
N4764       N  0.53867680  0.33789655  0.13569418    -0.88200
H4765       H  0.61387636  0.28863413  0.20090193     0.35900
H4766       H  0.59809638  0.26451532  0.19124624     0.41000
H4767       H  0.54770353  0.35276485  0.12864385     0.40600
H4768       H  0.52428959  0.34464021  0.14570107     0.35500
C4769       C  0.45429498  0.33832087  0.20344007    -0.26200
C4770       C  0.44435973  0.31570969  0.20860745    -0.14300
C4771       C  0.42250188  0.30845077  0.19751516     0.36300
C4772       C  0.41132538  0.32356682  0.18090301    -0.25700
C4773       C  0.42176071  0.34572545  0.17484207    -0.14900
C4774       C  0.44320589  0.35355409  0.18666286     0.37400
N4775       N  0.45469643  0.37617563  0.18140927    -0.89200
H4776       H  0.47149557  0.34357129  0.21141176     0.18500
H4777       H  0.39471394  0.31773472  0.17210904     0.18500
N4778       N  0.41175065  0.28546581  0.20227278    -0.88200
H4779       H  0.45466562  0.38652881  0.19726244     0.35900
H4780       H  0.44508030  0.38587105  0.16846972     0.41000
H4781       H  0.40890186  0.28421190  0.22088169     0.40600
H4782       H  0.42378103  0.27198772  0.19720037     0.35500
C4783       C  0.40979838  0.20178698  0.32112204    -0.26200
C4784       C  0.42242301  0.18606357  0.33637666    -0.14300
C4785       C  0.44738075  0.18973042  0.34058924     0.36300
C4786       C  0.45945090  0.20753202  0.32757543    -0.25700
C4787       C  0.44716544  0.22201694  0.31090546    -0.14900
C4788       C  0.42205090  0.21970822  0.30827027     0.37400
N4789       N  0.40927512  0.23434799  0.29129933    -0.89200
H4790       H  0.39056897  0.19933973  0.31828536     0.18500
H4791       H  0.47889611  0.20905357  0.32935583     0.18500
N4792       N  0.46118054  0.17524399  0.35707916    -0.88200
H4793       H  0.39584691  0.24354720  0.30065513     0.35900
H4794       H  0.40083481  0.22298455  0.27861350     0.41000
H4795       H  0.45038805  0.16272041  0.36595582     0.40600
H4796       H  0.46817479  0.18671245  0.37050904     0.35500
C4797       C  0.56355276  0.45146154  0.40324014    -0.26200
C4798       C  0.57123254  0.42851438  0.40981386    -0.14300
C4799       C  0.55837475  0.41541485  0.42720679     0.36300
C4800       C  0.53793931  0.42567340  0.43789232    -0.25700
C4801       C  0.53013795  0.44889177  0.43162497    -0.14900
C4802       C  0.54334052  0.46187061  0.41403518     0.37400
N4803       N  0.53694375  0.48594322  0.40757369    -0.89200
H4804       H  0.57347716  0.46144581  0.38977260     0.18500
H4805       H  0.52851012  0.41569678  0.45169236     0.18500
N4806       N  0.56655952  0.39201047  0.43438293    -0.88200
H4807       H  0.53368170  0.48634293  0.38892288     0.35900
H4808       H  0.55168752  0.49720960  0.41139626     0.41000
H4809       H  0.56473642  0.38050341  0.41943364     0.40600
H4810       H  0.55553170  0.38499622  0.44788029     0.35500
C4811       C  0.43544170  0.54537459  0.57527494    -0.26200
C4812       C  0.45071991  0.55741801  0.55918585    -0.14300
C4813       C  0.44889783  0.58267158  0.55680527     0.36300
C4814       C  0.43107308  0.59492991  0.56974550    -0.25700
C4815       C  0.41482053  0.58256072  0.58458661    -0.14900
C4816       C  0.41748100  0.55753225  0.58793762     0.37400
N4817       N  0.40206264  0.54379761  0.60350169    -0.89200
H4818       H  0.43645917  0.52595924  0.57681799     0.18500
H4819       H  0.42916399  0.61416884  0.56735422     0.18500
N4820       N  0.46349764  0.59617489  0.54029208    -0.88200
H4821       H  0.39194760  0.53197127  0.59259711     0.35900
H4822       H  0.38983003  0.55465900  0.61264453     0.41000
H4823       H  0.47600493  0.58526362  0.53160477     0.40600
H4824       H  0.47350263  0.60869745  0.55048263     0.35500
C4825       C  0.41267012  0.56604705  0.45059990    -0.26200
C4826       C  0.42670513  0.54976339  0.43714940    -0.14300
C4827       C  0.43030979  0.55421641  0.41221777     0.36300
C4828       C  0.42020021  0.57461124  0.40166075    -0.25700
C4829       C  0.40684309  0.59100407  0.41535513    -0.14900
C4830       C  0.40274369  0.58661703  0.43995137     0.37400
N4831       N  0.38854146  0.60306941  0.45394400    -0.89200
H4832       H  0.41000449  0.56318261  0.46974701     0.18500
H4833       H  0.42269500  0.57771233  0.38251234     0.18500
N4834       N  0.44374800  0.53834330  0.39700583    -0.88200
H4835       H  0.37096588  0.60259733  0.44693221     0.35900
H4836       H  0.38745714  0.59737745  0.47188235     0.41000
H4837       H  0.43682359  0.52090219  0.39874344     0.40600
H4838       H  0.46185205  0.53870506  0.40236360     0.35500
C4839       C  0.41868811  0.41033168  0.56472249    -0.26200
C4840       C  0.40301426  0.42402926  0.57891682    -0.14300
C4841       C  0.39742738  0.44766995  0.57217417     0.36300
C4842       C  0.40810751  0.45742856  0.55153016    -0.25700
C4843       C  0.42445748  0.44408267  0.53746691    -0.14900
C4844       C  0.42955917  0.42015004  0.54417007     0.37400
N4845       N  0.44576906  0.40575032  0.53030957    -0.89200
H4846       H  0.42241637  0.39186452  0.56961504     0.18500
H4847       H  0.40418882  0.47592446  0.54696903     0.18500
N4848       N  0.38102982  0.46166704  0.58642165    -0.88200
H4849       H  0.43645973  0.39033258  0.52443418     0.35900
H4850       H  0.45982554  0.40033159  0.54173009     0.41000
H4851       H  0.36404485  0.45345823  0.58514909     0.40600
H4852       H  0.37915583  0.47892755  0.57926410     0.35500
C4853       C  0.54695808  0.59627710  0.43257734    -0.26200
C4854       C  0.56306608  0.58406463  0.41747484    -0.14300
C4855       C  0.57006152  0.56046453  0.42327045     0.36300
C4856       C  0.56016106  0.54921085  0.44337836    -0.25700
C4857       C  0.54318832  0.56090910  0.45792767    -0.14900
C4858       C  0.53679782  0.58494183  0.45269856     0.37400
N4859       N  0.51932414  0.59789808  0.46663255    -0.89200
H4860       H  0.54215506  0.61470721  0.42856961     0.18500
H4861       H  0.56451499  0.53052415  0.44673379     0.18500
N4862       N  0.58702142  0.54748976  0.40889725    -0.88200
H4863       H  0.52799341  0.61306581  0.47397608     0.35900
H4864       H  0.51344049  0.58778970  0.48131609     0.41000
H4865       H  0.60312656  0.55736325  0.40844624     0.40600
H4866       H  0.58017240  0.54600184  0.39128382     0.35500
C4867       C  0.54259264  0.45659690  0.57379733    -0.26200
C4868       C  0.54497880  0.45775333  0.54861247    -0.14300
C4869       C  0.55945235  0.44070283  0.53665759     0.36300
C4870       C  0.57075876  0.42245499  0.54980953    -0.25700
C4871       C  0.56783182  0.42082643  0.57483694    -0.14900
C4872       C  0.55399423  0.43823739  0.58699448     0.37400
N4873       N  0.55116431  0.43696538  0.61265494    -0.89200
H4874       H  0.53092911  0.46914857  0.58304537     0.18500
H4875       H  0.58190561  0.40950100  0.54046344     0.18500
N4876       N  0.56226321  0.44168169  0.51094559    -0.88200
H4877       H  0.53274542  0.43553325  0.61627344     0.35900
H4878       H  0.55750576  0.45312861  0.62021715     0.41000
H4879       H  0.55610892  0.42537669  0.50352908     0.40600
H4880       H  0.58065950  0.44330441  0.50728902     0.35500
loop_ 
_geom_bond_atom_site_label_1 
_geom_bond_atom_site_label_2 
_geom_bond_distance 
_geom_bond_site_symmetry_2 
_ccdc_geom_bond_type 
O1           C17   1.270       .  A
O1           Zn7   1.991       .  S
C2           O18   1.271       .  A
C2           O15   1.273       .  A
C2         C4826   1.484       .  S
O3           C16   1.280       .  A
O3          Cd10   2.118       .  S
O4           C22   1.267       .  A
O4          Cd13   2.015       .  S
O5           C19   1.276       .  A
O5           Cd9   2.074       .  S
O6           C17   1.276       .  A
O6           Cd9   2.072       .  S
Zn7          O18   2.001       .  S
Zn7          O20   1.931       .  S
Zn7          O12   1.911       .  S
O8           C19   1.273       .  A
O8          Cd13   2.045       .  S
Cd9          O11   2.012       .  S
Cd9          O12   1.980       .  S
Cd10         O14   2.124       .  S
Cd10         O23   2.113       .  S
Cd10         O12   2.038       .  S
O11          C21   1.266       .  A
O12         Cd13   1.966       .  S
Cd13         O15   2.053       .  S
O14          C21   1.281       .  A
C16          O20   1.262       .  A
C16        C4857   1.464       .  S
C17        C4801   1.491       .  S
C19        C4843   1.487       .  S
C21        C4868   1.472       .  S
C22          O23   1.280       .  A
C22        C4812   1.469       .  S
O24          C40   1.272       .  A
O24         Zn30   2.002       .  S
C25          O41   1.273       .  A
C25          O38   1.272       .  A
C25        C4742   1.477       .  S
O26          C39   1.277       .  A
O26         Cd33   2.101       .  S
O27          C45   1.267       .  A
O27         Cd36   2.020       .  S
O28          C42   1.272       .  A
O28         Cd32   2.044       .  S
O29          C40   1.272       .  A
O29         Cd32   2.049       .  S
Zn30         O41   1.987       .  S
Zn30         O43   1.957       .  S
Zn30         O35   1.907       .  S
O31          C42   1.272       .  A
O31         Cd36   2.050       .  S
Cd32         O34   2.020       .  S
Cd32         O35   1.969       .  S
Cd33         O37   2.086       .  S
Cd33         O46   2.089       .  S
Cd33         O35   2.026       .  S
O34          C44   1.268       .  A
O35         Cd36   1.974       .  S
Cd36         O38   2.046       .  S
O37          C44   1.276       .  A
C39          O43   1.266       .  A
C39        C4787   1.464       .  S
C40        C4714   1.478       .  S
C42        C4759   1.480       .  S
C44        C4770   1.458       .  S
C45          O46   1.277       .  A
C45        C4728   1.466       .  S
C47        C4672   1.497       .  S
C47          N48   1.364       .  A
C47          N52   1.362       .  A
N48          C49   1.362       .  A
C49        C4686   1.498       .  S
C49          N50   1.359       .  A
N50          C51   1.358       .  A
C51        C4700   1.501       .  S
C51          N52   1.360       .  A
C53        C4644   1.488       .  S
C53          N54   1.358       .  A
C53          N58   1.357       .  A
N54          C55   1.360       .  A
C55        C4630   1.494   1_565  S
C55          N56   1.363       .  A
N56          C57   1.363       .  A
C57        C4661   1.492   1_556  S
C57          N58   1.358       .  A
C59        C4602   1.487   1_556  S
C59          N60   1.358       .  A
C59          N64   1.360       .  A
N60          C61   1.359       .  A
C61        C4588   1.497       .  S
C61          N62   1.361       .  A
N62          C63   1.361       .  A
C63        C4616   1.496   1_655  S
C63          N64   1.361       .  A
C65        C4546   1.487       .  S
C65          N66   1.358       .  A
C65          N70   1.359       .  A
N66          C67   1.358       .  A
C67        C4577   1.490   1_565  S
C67          N68   1.361       .  A
N68          C69   1.362       .  A
C69        C4560   1.494       .  S
C69          N70   1.358       .  A
N71          C76   1.354       .  A
N71          C75   1.354       .  A
N71         H103   1.034       .  S
N72          C79   1.351       .  A
N72          C80   1.352       .  A
N73          C78   1.351       .  A
N73          C77   1.350       .  A
N73         H104   1.037       .  S
N74          C81   1.352       .  A
N74          C82   1.353       .  A
C75          C83   1.388       .  A
C75          C91   1.420       .  A
C76          C92   1.417       .  A
C76          C84   1.386       .  A
C77          C85   1.388       .  A
C77          C94   1.411       .  A
C78          C93   1.409       .  A
C78          C86   1.385       .  A
C79          C91   1.417       .  A
C79          C87   1.387       .  A
C80          C94   1.414       .  A
C80          C88   1.385       .  A
C81          C89   1.385       .  A
C81          C92   1.414       .  A
C82          C90   1.387       .  A
C82          C93   1.417       .  A
C83          C84   1.375       .  A
C83          H95   1.082       .  S
C84          H96   1.082       .  S
C85          C86   1.372       .  A
C85          H97   1.082       .  S
C86          H98   1.082       .  S
C87          C88   1.378       .  A
C87          H99   1.082       .  S
C88         H100   1.082       .  S
C89          C90   1.373       .  A
C89         H101   1.082       .  S
C90         H102   1.082       .  S
C91        C4563   1.491       .  S
C92        C4619   1.489       .  S
C93        C4532   1.491       .  S
C94        C4518   1.484       .  S
N105        C110   1.354       .  A
N105        C109   1.354       .  A
N105        H137   1.037       .  S
N106        C113   1.350       .  A
N106        C114   1.351       .  A
N107        C112   1.349       .  A
N107        C111   1.348       .  A
N107        H138   1.038       .  S
N108        C115   1.351       .  A
N108        C116   1.352       .  A
C109        C117   1.388       .  A
C109        C125   1.419       .  A
C110        C126   1.418       .  A
C110        C118   1.387       .  A
C111        C119   1.389       .  A
C111        C128   1.407       .  A
C112        C127   1.405       .  A
C112        C120   1.386       .  A
C113        C125   1.415       .  A
C113        C121   1.388       .  A
C114        C128   1.410       .  A
C114        C122   1.385       .  A
C115        C123   1.386       .  A
C115        C126   1.413       .  A
C116        C124   1.385       .  A
C116        C127   1.412       .  A
C117        C118   1.377       .  A
C117        H129   1.082       .  S
C118        H130   1.082       .  S
C119        C120   1.371       .  A
C119        H131   1.082       .  S
C120        H132   1.082       .  S
C121        C122   1.376       .  A
C121        H133   1.082       .  S
C122        H134   1.082       .  S
C123        C124   1.375       .  A
C123        H135   1.082       .  S
C124        H136   1.082       .  S
C125       C4605   1.489       .  S
C126       C4658   1.489       .  S
C127       C4493   1.482       .  S
C128       C4507   1.477       .  S
N139        C144   1.353       .  A
N139        C143   1.355       .  A
N139        H171   1.036       .  S
N140        C147   1.351       .  A
N140        C148   1.350       .  A
N141        C146   1.350       .  A
N141        C145   1.348       .  A
N141        H172   1.036       .  S
N142        C149   1.350       .  A
N142        C150   1.352       .  A
C143        C151   1.386       .  A
C143        C159   1.418       .  A
C144        C160   1.419       .  A
C144        C152   1.388       .  A
C145        C153   1.388       .  A
C145        C162   1.407       .  A
C146        C161   1.407       .  A
C146        C154   1.387       .  A
C147        C159   1.413       .  A
C147        C155   1.386       .  A
C148        C162   1.412       .  A
C148        C156   1.386       .  A
C149        C157   1.388       .  A
C149        C160   1.415       .  A
C150        C158   1.385       .  A
C150        C161   1.413       .  A
C151        C152   1.376       .  A
C151        H163   1.082       .  S
C152        H164   1.082       .  S
C153        C154   1.369       .  A
C153        H165   1.082       .  S
C154        H166   1.082       .  S
C155        C156   1.375       .  A
C155        H167   1.082       .  S
C156        H168   1.082       .  S
C157        C158   1.376       .  A
C157        H169   1.082       .  S
C158        H170   1.082       .  S
C159       C4703   1.490       .  S
C160       C4549   1.487       .  S
C161       C4462   1.482       .  S
C162       C4476   1.475       .  S
N173        C178   1.357       .  A
N173        C177   1.356       .  A
N173        H205   1.031       .  S
N174        C181   1.352       .  A
N174        C182   1.353       .  A
N175        C180   1.349       .  A
N175        C179   1.350       .  A
N175        H206   1.034       .  S
N176        C183   1.352       .  A
N176        C184   1.353       .  A
C177        C185   1.389       .  A
C177        C193   1.426       .  A
C178        C194   1.424       .  A
C178        C186   1.386       .  A
C179        C187   1.387       .  A
C179        C196   1.407       .  A
C180        C195   1.409       .  A
C180        C188   1.388       .  A
C181        C193   1.419       .  A
C181        C189   1.388       .  A
C182        C196   1.415       .  A
C182        C190   1.385       .  A
C183        C191   1.388       .  A
C183        C194   1.419       .  A
C184        C192   1.385       .  A
C184        C195   1.414       .  A
C185        C186   1.376       .  A
C185        H197   1.082       .  S
C186        H198   1.082       .  S
C187        C188   1.368       .  A
C187        H199   1.082       .  S
C188        H200   1.082       .  S
C189        C190   1.375       .  A
C189        H201   1.082       .  S
C190        H202   1.083       .  S
C191        C192   1.375       .  A
C191        H203   1.082       .  S
C192        H204   1.082       .  S
C193       C4591   1.493       .  S
C194       C4675   1.498       .  S
C195       C4437   1.480       .  S
C196       C4448   1.481       .  S
N207        C212   1.355       .  A
N207        C211   1.357       .  A
N207        H239   1.037       .  S
N208        C215   1.349       .  A
N208        C216   1.349       .  A
N209        C214   1.347       .  A
N209        C213   1.348       .  A
N209        H240   1.045       .  S
N210        C217   1.351       .  A
N210        C218   1.356       .  A
C211        C219   1.386       .  A
C211        C227   1.419       .  A
C212        C228   1.419       .  A
C212        C220   1.388       .  A
C213        C221   1.384       .  A
C213        C230   1.398       .  A
C214        C229   1.403       .  A
C214        C222   1.384       .  A
C215        C227   1.413       .  A
C215        C223   1.387       .  A
C216        C230   1.407       .  A
C216        C224   1.385       .  A
C217        C225   1.384       .  A
C217        C228   1.417       .  A
C218        C226   1.390       .  A
C218        C229   1.427       .  A
C219        C220   1.372       .  A
C219        H231   1.082       .  S
C220        H232   1.082       .  S
C221        C222   1.376       .  A
C221        H233   1.081       .  S
C222        H234   1.082       .  S
C223        C224   1.380       .  A
C223        H235   1.082       .  S
C224        H236   1.082       .  S
C225        C226   1.370       .  A
C225        H237   1.082       .  S
C226        H238   1.080       .  S
C227       C4689   1.492       .  S
C228       C4647   1.490       .  S
C229       C4406   1.528       .  S
C230       C4420   1.481       .  S
N241        C246   1.353       .  A
N241        C245   1.353       .  A
N241        H273   1.038       .  S
N242        C249   1.351       .  A
N242        C250   1.350       .  A
N243        C248   1.351       .  A
N243        C247   1.351       .  A
N243        H274   1.038       .  S
N244        C251   1.351       .  A
N244        C252   1.352       .  A
C245        C253   1.386       .  A
C245        C261   1.414       .  A
C246        C262   1.415       .  A
C246        C254   1.387       .  A
C247        C255   1.387       .  A
C247        C264   1.410       .  A
C248        C263   1.411       .  A
C248        C256   1.387       .  A
C249        C261   1.412       .  A
C249        C257   1.386       .  A
C250        C264   1.412       .  A
C250        C258   1.387       .  A
C251        C259   1.386       .  A
C251        C262   1.414       .  A
C252        C260   1.386       .  A
C252        C263   1.414       .  A
C253        C254   1.376       .  A
C253        H265   1.082       .  S
C254        H266   1.082       .  S
C255        C256   1.372       .  A
C255        H267   1.082       .  S
C256        H268   1.082       .  S
C257        C258   1.376       .  A
C257        H269   1.082       .  S
C258        H270   1.082       .  S
C259        C260   1.377       .  A
C259        H271   1.082       .  S
C260        H272   1.082       .  S
C261       C4574   1.490       .  S
C262       C4633   1.488       .  S
C263       C4392   1.485       .  S
C264       C4378   1.483       .  S
O275        C291   1.275       .  A
O275       Zn281   2.009       .  S
C276        O292   1.275       .  A
C276        O289   1.273       .  A
C276       C4350   1.473       .  S
O277        C290   1.278       .  A
O277       Cd284   2.105       .  S
O278        C296   1.268       .  A
O278       Cd287   2.021       .  S
O279        C293   1.269       .  A
O279       Cd283   2.030       .  S
O280        C291   1.270       .  A
O280       Cd283   2.043       .  S
Zn281       O292   2.007       .  S
Zn281       O294   1.973       .  S
Zn281       O286   1.915       .  S
O282        C293   1.273       .  A
O282       Cd287   2.071       .  S
Cd283       O285   2.010       .  S
Cd283       O286   1.965       .  S
Cd284       O288   2.106       .  S
Cd284       O297   2.109       .  S
Cd284       O286   2.021       .  S
O285        C295   1.267       .  A
O286       Cd287   1.978       .  S
Cd287       O289   2.047       .  S
O288        C295   1.279       .  A
C290        O294   1.267       .  A
C290       C4325   1.468       .  S
C291       C4311   1.479       .  S
C293       C4294   1.475       .  S
C295       C4364   1.467       .  S
C296        O297   1.280       .  A
C296       C4339   1.466       .  S
O298        C314   1.273       .  A
O298       Zn304   1.990       .  S
C299        O315   1.273       .  A
C299        O312   1.271       .  A
C299       C4213   1.480       .  S
O300        C313   1.278       .  A
O300       Cd307   2.100       .  S
O301        C319   1.266       .  A
O301       Cd310   2.008       .  S
O302        C316   1.275       .  A
O302       Cd306   2.067       .  S
O303        C314   1.275       .  A
O303       Cd306   2.063       .  S
Zn304       O315   2.017       .  S
Zn304       O317   1.960       .  S
Zn304       O309   1.914       .  S
O305        C316   1.271       .  A
O305       Cd310   2.042       .  S
Cd306       O308   2.017       .  S
Cd306       O309   1.978       .  S
Cd307       O311   2.103       .  S
Cd307       O320   2.101       .  S
Cd307       O309   2.025       .  S
O308        C318   1.267       .  A
O309       Cd310   1.963       .  S
Cd310       O312   2.037       .  S
O311        C318   1.278       .  A
C313        O317   1.267       .  A
C313       C4266   1.469       .  S
C314       C4224   1.482       .  S
C316       C4280   1.484       .  S
C318       C4241   1.467       .  S
C319        O320   1.278       .  A
C319       C4255   1.465       .  S
O321        C337   1.269       .  A
O321       Zn327   1.995       .  S
C322        O338   1.270       .  A
C322        O335   1.272       .  A
C322       C4168   1.473       .  S
O323        C336   1.279       .  A
O323       Cd330   2.110       .  S
O324        C342   1.269       .  A
O324       Cd333   2.032       .  S
O325        C339   1.273       .  A
O325       Cd329   2.052       .  S
O326        C337   1.275       .  A
O326       Cd329   2.072       .  S
Zn327       O338   1.968       .  S
Zn327       O340   1.939       .  S
Zn327       O332   1.897       .  S
O328        C339   1.274       .  A
O328       Cd333   2.053       .  S
Cd329       O331   2.005       .  S
Cd329       O332   1.966       .  S
Cd330       O334   2.107       .  S
Cd330       O343   2.115       .  S
Cd330       O332   2.032       .  S
O331        C341   1.267       .  A
O332       Cd333   1.972       .  S
Cd333       O335   2.048       .  S
O334        C341   1.280       .  A
C336        O340   1.266       .  A
C336       C4182   1.471       .  S
C337       C4423   1.489       .  S
C339       C4154   1.481       .  S
C341       C4196   1.466       .  S
C342        O343   1.280       .  A
C342       C4140   1.474       .  S
O344        C360   1.275       .  A
O344       Zn350   2.025       .  S
C345        O361   1.273       .  A
C345        O358   1.274       .  A
C345       C4070   1.484       .  S
O346        C359   1.281       .  A
O346       Cd353   2.119       .  S
O347        C365   1.269       .  A
O347       Cd356   2.036       .  S
O348        C362   1.273       .  A
O348       Cd352   2.049   1_554  S
O349        C360   1.271       .  A
O349       Cd352   2.053       .  S
Zn350       O361   1.993   1_556  S
Zn350       O363   1.952       .  S
Zn350       O355   1.916   1_556  S
O351        C362   1.276       .  A
O351       Cd356   2.075       .  S
Cd352       O354   2.002       .  S
Cd352       O355   1.971   1_556  S
Cd353       O357   2.120       .  S
Cd353       O366   2.116   1_556  S
Cd353       O355   2.037   1_556  S
O354        C364   1.265       .  A
O355       Cd356   1.979       .  S
Cd356       O358   2.061       .  S
O357        C364   1.281       .  A
C359        O363   1.266       .  A
C359       C4535   1.475       .  S
C360       C4084   1.486       .  S
C362       C4112   1.482       .  S
C364       C4098   1.466       .  S
C365        O366   1.280       .  A
C365       C4126   1.475       .  S
O367        C383   1.272       .  A
O367       Zn373   1.988   1_455  S
C368        O384   1.273       .  A
C368        O381   1.271       .  A
C368       C4031   1.482       .  S
O369        C382   1.279       .  A
O369       Cd376   2.118   1_554  S
O370        C388   1.265       .  A
O370       Cd379   2.001       .  S
O371        C385   1.273       .  A
O371       Cd375   2.064       .  S
O372        C383   1.273       .  A
O372       Cd375   2.055   1_554  S
Zn373       O384   1.996       .  S
Zn373       O386   1.952       .  S
Zn373       O378   1.909   1_554  S
O374        C385   1.272       .  A
O374       Cd379   2.044   1_455  S
Cd375       O377   2.009       .  S
Cd375       O378   1.976   1_455  S
Cd376       O380   2.117       .  S
Cd376       O389   2.110       .  S
Cd376       O378   2.036       .  S
O377        C387   1.265       .  A
O378       Cd379   1.967       .  S
Cd379       O381   2.053   1_556  S
O380        C387   1.280   1_655  A
C382        O386   1.264       .  A
C382       C4056   1.469       .  S
C383       C4000   1.478       .  S
C385       C4017   1.484       .  S
C387       C4042   1.465       .  S
C388        O389   1.280       .  A
C388       C4451   1.461       .  S
O390        C406   1.275       .  A
O390       Zn396   2.015       .  S
C391        O407   1.276       .  A
C391        O404   1.275       .  A
C391       C3972   1.484       .  S
O392        C405   1.275       .  A
O392       Cd399   2.085       .  S
O393        C411   1.267       .  A
O393       Cd402   2.027       .  S
O394        C408   1.276       .  A
O394       Cd398   2.068   1_565  S
O395        C406   1.275       .  A
O395       Cd398   2.071       .  S
Zn396       O407   2.024   1_545  S
Zn396       O409   1.945       .  S
Zn396       O401   1.910       .  S
O397        C408   1.275       .  A
O397       Cd402   2.062       .  S
Cd398       O400   2.017       .  S
Cd398       O401   1.974       .  S
Cd399       O403   2.099       .  S
Cd399       O412   2.100       .  S
Cd399       O401   2.032       .  S
O400        C410   1.267       .  A
O401       Cd402   1.971   1_545  S
Cd402       O404   2.061       .  S
O403        C410   1.278       .  A
C405        O409   1.266       .  A
C405       C3958   1.459       .  S
C406       C3989   1.491       .  S
C408       C4521   1.487       .  S
C410       C3933   1.474       .  S
C411        O412   1.278   1_565  A
C411       C3947   1.466       .  S
O413        C429   1.273       .  A
O413       Zn419   2.002       .  S
C414        O430   1.272       .  A
C414        O427   1.274       .  A
C414       C3888   1.480       .  S
O415        C428   1.281       .  A
O415       Cd422   2.107       .  S
O416        C434   1.267       .  A
O416       Cd425   2.007       .  S
O417        C431   1.271       .  A
O417       Cd421   2.041       .  S
O418        C429   1.272       .  A
O418       Cd421   2.029       .  S
Zn419       O430   2.001       .  S
Zn419       O432   1.948       .  S
Zn419       O424   1.880       .  S
O420        C431   1.272       .  A
O420       Cd425   2.043       .  S
Cd421       O423   2.028       .  S
Cd421       O424   1.942       .  S
Cd422       O426   2.124       .  S
Cd422       O435   2.091       .  S
Cd422       O424   2.003       .  S
O423        C433   1.268       .  A
O424       Cd425   1.953       .  S
Cd425       O427   2.052       .  S
O426        C433   1.281       .  A
C428        O432   1.268       .  A
C428       C3877   1.463       .  S
C429       C3902   1.474       .  S
C431       C3916   1.471       .  S
C433       C3860   1.491       .  S
C434        O435   1.278       .  A
C434       C4479   1.457       .  S
O436        C452   1.270       .  A
O436       Zn442   1.997   1_455  S
C437        O453   1.272       .  A
C437        O450   1.277       .  A
C437       C3804   1.477       .  S
O438        C451   1.276       .  A
O438       Cd445   2.089       .  S
O439        C457   1.268       .  A
O439       Cd448   2.023       .  S
O440        C454   1.272       .  A
O440       Cd444   2.046       .  S
O441        C452   1.271       .  A
O441       Cd444   2.050   1_455  S
Zn442       O453   1.991       .  S
Zn442       O455   1.942   1_655  S
Zn442       O447   1.899       .  S
O443        C454   1.275       .  A
O443       Cd448   2.061       .  S
Cd444       O446   2.010   1_655  S
Cd444       O447   1.968       .  S
Cd445       O449   2.091       .  S
Cd445       O458   2.094   1_455  S
Cd445       O447   2.024   1_455  S
O446        C456   1.266       .  A
O447       Cd448   1.966       .  S
Cd448       O450   2.067       .  S
O449        C456   1.276       .  A
C451        O455   1.265       .  A
C451       C3846   1.455       .  S
C452       C3832   1.483       .  S
C454       C4504   1.480       .  S
C456       C3793   1.462       .  S
C457        O458   1.277       .  A
C457       C3818   1.461       .  S
O459        C475   1.274       .  A
O459       Zn465   2.008       .  S
C460        O476   1.272       .  A
C460        O473   1.274       .  A
C460       C3748   1.481       .  S
O461        C474   1.279       .  A
O461       Cd468   2.106       .  S
O462        C480   1.267       .  A
O462       Cd471   2.018   1_565  S
O463        C477   1.272       .  A
O463       Cd467   2.040   1_554  S
O464        C475   1.271       .  A
O464       Cd467   2.044       .  S
Zn465       O476   2.003   1_546  S
Zn465       O478   1.936   1_545  S
Zn465       O470   1.905   1_556  S
O466        C477   1.273       .  A
O466       Cd471   2.058       .  S
Cd467       O469   2.001       .  S
Cd467       O470   1.958   1_556  S
Cd468       O472   2.096   1_565  S
Cd468       O481   2.124       .  S
Cd468       O470   2.033   1_566  S
O469        C479   1.265       .  A
O470       Cd471   1.966       .  S
Cd471       O473   2.042   1_545  S
O472        C479   1.277       .  A
C474        O478   1.264       .  A
C474       C4409   1.475       .  S
C475       C3734   1.487       .  S
C477       C3723   1.477       .  S
C479       C3776   1.460       .  S
C480        O481   1.282   1_554  A
C480       C3762   1.472       .  S
C482       C3692   1.496       .  S
C482        N483   1.358       .  A
C482        N487   1.359       .  A
N483        C484   1.358       .  A
C484       C3706   1.497       .  S
C484        N485   1.363       .  A
N485        C486   1.363       .  A
C486       C3678   1.494       .  S
C486        N487   1.360       .  A
N488        C493   1.354       .  A
N488        C492   1.354       .  A
N488        H520   1.037       .  S
N489        C496   1.349       .  A
N489        C497   1.351       .  A
N490        C495   1.348       .  A
N490        C494   1.352       .  A
N490        H521   1.037       .  S
N491        C498   1.352       .  A
N491        C499   1.351       .  A
C492        C500   1.388       .  A
C492        C508   1.417       .  A
C493        C509   1.418       .  A
C493        C501   1.387       .  A
C494        C502   1.386       .  A
C494        C511   1.409       .  A
C495        C510   1.409       .  A
C495        C503   1.388       .  A
C496        C508   1.412       .  A
C496        C504   1.387       .  A
C497        C511   1.412       .  A
C497        C505   1.385       .  A
C498        C506   1.386       .  A
C498        C509   1.415       .  A
C499        C507   1.386       .  A
C499        C510   1.413       .  A
C500        C501   1.375       .  A
C500        H512   1.082       .  S
C501        H513   1.082       .  S
C502        C503   1.371       .  A
C502        H514   1.082       .  S
C503        H515   1.082       .  S
C504        C505   1.376       .  A
C504        H516   1.082       .  S
C505        H517   1.082       .  S
C506        C507   1.376       .  A
C506        H518   1.082       .  S
C507        H519   1.082       .  S
C508       C3695   1.484       .  S
C509       C3664   1.494       .  S
C510       C4829   1.480       .  S
C511       C4322   1.485       .  S
C522       C3622   1.498       .  S
C522        N523   1.360       .  A
C522        N527   1.364       .  A
N523        C524   1.359   1_565  A
C524       C3650   1.488       .  S
C524        N525   1.360   1_545  A
N525        C526   1.361       .  A
C526       C3639   1.495       .  S
C526        N527   1.363       .  A
N528        C533   1.354       .  A
N528        C532   1.356       .  A
N528        H560   1.036       .  S
N529        C536   1.351       .  A
N529        C537   1.351       .  A
N530        C535   1.350       .  A
N530        C534   1.349       .  A
N530        H561   1.037       .  S
N531        C538   1.353       .  A
N531        C539   1.354       .  A
C532        C540   1.387       .  A
C532        C548   1.420       .  A
C533        C549   1.419       .  A
C533        C541   1.387       .  A
C534        C542   1.388       .  A
C534        C551   1.408       .  A
C535        C550   1.407       .  A
C535        C543   1.386       .  A
C536        C548   1.414       .  A
C536        C544   1.387       .  A
C537        C551   1.413       .  A
C537        C545   1.386       .  A
C538        C546   1.387       .  A
C538        C549   1.418       .  A
C539        C547   1.386       .  A
C539        C550   1.417       .  A
C540        C541   1.377       .  A
C540        H552   1.082       .  S
C541        H553   1.082       .  S
C542        C543   1.370       .  A
C542        H554   1.082       .  S
C543        H555   1.082       .  S
C544        C545   1.376       .  A
C544        H556   1.082       .  S
C545        H557   1.082       .  S
C546        C547   1.377       .  A
C546        H558   1.082       .  S
C547        H559   1.082       .  S
C548       C3608   1.494       .  S
C549       C3625   1.495       .  S
C550       C3594   1.487       .  S
C551       C3874   1.479       .  S
N562        C567   1.355       .  A
N562        C566   1.355       .  A
N562        H594   1.036       .  S
N563        C570   1.356       .  A
N563        C571   1.355       .  A
N564        C569   1.354       .  A
N564        C568   1.352       .  A
N564        H595   1.035       .  S
N565        C572   1.353       .  A
N565        C573   1.353       .  A
C566        C574   1.388       .  A
C566        C582   1.419       .  A
C567        C583   1.417       .  A
C567        C575   1.387       .  A
C568        C576   1.388       .  A
C568        C585   1.416       .  A
C569        C584   1.416       .  A
C569        C577   1.387       .  A
C570        C582   1.421       .  A
C570        C578   1.386       .  A
C571        C585   1.421       .  A
C571        C579   1.387       .  A
C572        C580   1.386       .  A
C572        C583   1.415       .  A
C573        C581   1.387       .  A
C573        C584   1.418       .  A
C574        C575   1.374       .  A
C574        H586   1.082       .  S
C575        H587   1.082       .  S
C576        C577   1.375       .  A
C576        H588   1.082       .  S
C577        H589   1.082       .  S
C578        C579   1.377       .  A
C578        H590   1.082       .  S
C579        H591   1.082       .  S
C580        C581   1.375       .  A
C580        H592   1.082       .  S
C581        H593   1.082       .  S
C582       C3636   1.499       .  S
C583       C3709   1.490       .  S
C584       C4129   1.492       .  S
C585       C3765   1.491       .  S
C596       C3583   1.499       .  S
C596        N597   1.361       .  A
C596        N601   1.362       .  A
N597        C598   1.360       .  A
C598       C3552   1.497       .  S
C598        N599   1.357       .  A
N599        C600   1.360       .  A
C600       C3566   1.495   1_565  S
C600        N601   1.361       .  A
C602       C3538   1.497       .  S
C602        N603   1.364       .  A
C602        N607   1.360       .  A
N603        C604   1.364       .  A
C604       C3611   1.496       .  S
C604        N605   1.360       .  A
N605        C606   1.358       .  A
C606       C3667   1.493       .  S
C606        N607   1.359       .  A
N608        C613   1.355       .  A
N608        C612   1.354       .  A
N608        H640   1.037       .  S
N609        C616   1.350       .  A
N609        C617   1.352       .  A
N610        C615   1.348       .  A
N610        C614   1.351       .  A
N610        H641   1.037       .  S
N611        C618   1.352       .  A
N611        C619   1.352       .  A
C612        C620   1.388       .  A
C612        C628   1.420       .  A
C613        C629   1.418       .  A
C613        C621   1.386       .  A
C614        C622   1.387       .  A
C614        C631   1.408       .  A
C615        C630   1.408       .  A
C615        C623   1.388       .  A
C616        C628   1.415       .  A
C616        C624   1.387       .  A
C617        C631   1.413       .  A
C617        C625   1.385       .  A
C618        C626   1.387       .  A
C618        C629   1.416       .  A
C619        C627   1.385       .  A
C619        C630   1.413       .  A
C620        C621   1.376       .  A
C620        H632   1.082       .  S
C621        H633   1.082       .  S
C622        C623   1.370       .  A
C622        H634   1.082       .  S
C623        H635   1.082       .  S
C624        C625   1.377       .  A
C624        H636   1.082       .  S
C625        H637   1.082       .  S
C626        C627   1.377       .  A
C626        H638   1.082       .  S
C627        H639   1.082       .  S
C628       C3555   1.489       .  S
C629       C3541   1.495       .  S
C630       C4157   1.479       .  S
C631       C3975   1.485       .  S
N642        C647   1.352       .  A
N642        C646   1.353       .  A
N642        H674   1.038       .  S
N643        C650   1.351       .  A
N643        C651   1.351       .  A
N644        C649   1.350       .  A
N644        C648   1.350       .  A
N644        H675   1.037       .  S
N645        C652   1.353       .  A
N645        C653   1.352       .  A
C646        C654   1.387       .  A
C646        C662   1.414       .  A
C647        C663   1.417       .  A
C647        C655   1.387       .  A
C648        C656   1.387       .  A
C648        C665   1.410       .  A
C649        C664   1.409       .  A
C649        C657   1.387       .  A
C650        C662   1.412       .  A
C650        C658   1.386       .  A
C651        C665   1.414       .  A
C651        C659   1.386       .  A
C652        C660   1.386       .  A
C652        C663   1.416       .  A
C653        C661   1.386       .  A
C653        C664   1.415       .  A
C654        C655   1.377       .  A
C654        H666   1.082       .  S
C655        H667   1.082       .  S
C656        C657   1.373       .  A
C656        H668   1.082       .  S
C657        H669   1.082       .  S
C658        C659   1.374       .  A
C658        H670   1.082       .  S
C659        H671   1.082       .  S
C660        C661   1.376       .  A
C660        H672   1.082       .  S
C661        H673   1.083       .  S
C662       C3569   1.486       .  S
C663       C3653   1.495       .  S
C664       C4784   1.482       .  S
C665       C4269   1.486       .  S
N676        C681   1.355       .  A
N676        C680   1.355       .  A
N676        H708   1.036       .  S
N677        C684   1.349       .  A
N677        C685   1.351       .  A
N678        C683   1.348       .  A
N678        C682   1.349       .  A
N678        H709   1.037       .  S
N679        C686   1.350       .  A
N679        C687   1.352       .  A
C680        C688   1.387       .  A
C680        C696   1.419       .  A
C681        C697   1.420       .  A
C681        C689   1.387       .  A
C682        C690   1.387       .  A
C682        C699   1.406       .  A
C683        C698   1.406       .  A
C683        C691   1.387       .  A
C684        C696   1.412       .  A
C684        C692   1.387       .  A
C685        C699   1.410       .  A
C685        C693   1.385       .  A
C686        C694   1.387       .  A
C686        C697   1.416       .  A
C687        C695   1.385       .  A
C687        C698   1.412       .  A
C688        C689   1.376       .  A
C688        H700   1.082       .  S
C689        H701   1.082       .  S
C690        C691   1.369       .  A
C690        H702   1.083       .  S
C691        H703   1.082       .  S
C692        C693   1.376       .  A
C692        H704   1.082       .  S
C693        H705   1.082       .  S
C694        C695   1.376       .  A
C694        H706   1.082       .  S
C695        H707   1.082       .  S
C696       C3580   1.487       .  S
C697       C3681   1.493       .  S
C698       C3835   1.480       .  S
C699       C3524   1.480       .  S
O710        C726   1.272       .  A
O710       Zn716   2.000       .  S
C711        O727   1.272       .  A
C711        O724   1.273       .  A
C711       C3499   1.482       .  S
O712        C725   1.279       .  A
O712       Cd719   2.114       .  S
O713        C731   1.268       .  A
O713       Cd722   2.019   1_565  S
O714        C728   1.273       .  A
O714       Cd718   2.045       .  S
O715        C726   1.270       .  A
O715       Cd718   2.044       .  S
Zn716       O727   1.986   1_545  S
Zn716       O729   1.937   1_545  S
Zn716       O721   1.906       .  S
O717        C728   1.273       .  A
O717       Cd722   2.057       .  S
Cd718       O720   2.012       .  S
Cd718       O721   1.961       .  S
Cd719       O723   2.103   1_565  S
Cd719       O732   2.113       .  S
Cd719       O721   2.029   1_565  S
O720        C730   1.266       .  A
O721       Cd722   1.967       .  S
Cd722       O724   2.057   1_545  S
O723        C730   1.279       .  A
C725        O729   1.264       .  A
C725       C3597   1.465       .  S
C726       C3482   1.482       .  S
C728       C3471   1.473       .  S
C730       C3510   1.469       .  S
C731        O732   1.280       .  A
C731       C4490   1.467       .  S
O733        C749   1.275       .  A
O733       Zn739   2.008       .  S
C734        O750   1.275       .  A
C734        O747   1.271       .  A
C734       C3454   1.477       .  S
O735        C748   1.272       .  A
O735       Cd742   2.071       .  S
O736        C754   1.267       .  A
O736       Cd745   2.025   1_554  S
O737        C751   1.275       .  A
O737       Cd741   2.064       .  S
O738        C749   1.276       .  A
O738       Cd741   2.077       .  S
Zn739       O750   2.017   1_556  S
Zn739       O752   1.959   1_556  S
Zn739       O744   1.914       .  S
O740        C751   1.271       .  A
O740       Cd745   2.034       .  S
Cd741       O743   2.033       .  S
Cd741       O744   1.977       .  S
Cd742       O746   2.070   1_554  S
Cd742       O755   2.079       .  S
Cd742       O744   2.020   1_554  S
O743        C753   1.269       .  A
O744       Cd745   1.967       .  S
Cd745       O747   2.038   1_556  S
O746        C753   1.274       .  A
C748        O752   1.266       .  A
C748       C3398   1.454       .  S
C749       C4395   1.493       .  S
C751       C3440   1.477       .  S
C753       C3412   1.463       .  S
C754        O755   1.274       .  A
C754       C3426   1.457       .  S
C756       C3356   1.496       .  S
C756        N757   1.357       .  A
C756        N761   1.364       .  A
N757        C758   1.355       .  A
C758       C3370   1.488       .  S
C758        N759   1.357       .  A
N759        C760   1.360       .  A
C760       C3387   1.494       .  S
C760        N761   1.365       .  A
C762       C3314   1.503       .  S
C762        N763   1.363       .  A
C762        N767   1.362       .  A
N763        C764   1.362       .  A
C764       C3328   1.501   1_556  S
C764        N765   1.361       .  A
N765        C766   1.359       .  A
C766       C3345   1.503       .  S
C766        N767   1.362       .  A
C768       C3303   1.485       .  S
C768        N769   1.360       .  A
C768        N773   1.358       .  A
N769        C770   1.359       .  A
C770       C3272   1.493       .  S
C770        N771   1.360       .  A
N771        C772   1.360       .  A
C772       C3286   1.489       .  S
C772        N773   1.359       .  A
C774       C3247   1.503       .  S
C774        N775   1.364       .  A
C774        N779   1.360       .  A
N775        C776   1.365       .  A
C776       C3258   1.495   1_556  S
C776        N777   1.361       .  A
N777        C778   1.359       .  A
C778       C3230   1.496       .  S
C778        N779   1.357       .  A
N780        C785   1.355       .  A
N780        C784   1.354       .  A
N780        H812   1.036       .  S
N781        C788   1.350       .  A
N781        C789   1.353       .  A
N782        C787   1.346       .  A
N782        C786   1.348       .  A
N782        H813   1.037       .  S
N783        C790   1.349       .  A
N783        C791   1.349       .  A
C784        C792   1.388       .  A
C784        C800   1.419       .  A
C785        C801   1.418       .  A
C785        C793   1.386       .  A
C786        C794   1.387       .  A
C786        C803   1.404       .  A
C787        C802   1.404       .  A
C787        C795   1.388       .  A
C788        C800   1.415       .  A
C788        C796   1.387       .  A
C789        C803   1.414       .  A
C789        C797   1.385       .  A
C790        C798   1.386       .  A
C790        C801   1.411       .  A
C791        C799   1.386       .  A
C791        C802   1.409       .  A
C792        C793   1.374       .  A
C792        H804   1.082       .  S
C793        H805   1.082       .  S
C794        C795   1.370       .  A
C794        H806   1.082       .  S
C795        H807   1.083       .  S
C796        C797   1.378       .  A
C796        H808   1.082       .  S
C797        H809   1.082       .  S
C798        C799   1.374       .  A
C798        H810   1.082       .  S
C799        H811   1.082       .  S
C800       C3233   1.488       .  S
C801       C3289   1.488       .  S
C802       C4171   1.471       .  S
C803       C4101   1.483       .  S
N814        C819   1.353       .  A
N814        C818   1.356       .  A
N814        H846   1.035       .  S
N815        C822   1.353       .  A
N815        C823   1.351       .  A
N816        C821   1.351       .  A
N816        C820   1.348       .  A
N816        H847   1.038       .  S
N817        C824   1.350       .  A
N817        C825   1.353       .  A
C818        C826   1.387       .  A
C818        C834   1.420       .  A
C819        C835   1.419       .  A
C819        C827   1.387       .  A
C820        C828   1.389       .  A
C820        C837   1.410       .  A
C821        C836   1.408       .  A
C821        C829   1.386       .  A
C822        C834   1.416       .  A
C822        C830   1.386       .  A
C823        C837   1.415       .  A
C823        C831   1.386       .  A
C824        C832   1.388       .  A
C824        C835   1.416       .  A
C825        C833   1.384       .  A
C825        C836   1.412       .  A
C826        C827   1.375       .  A
C826        H838   1.082       .  S
C827        H839   1.082       .  S
C828        C829   1.370       .  A
C828        H840   1.082       .  S
C829        H841   1.082       .  S
C830        C831   1.376       .  A
C830        H842   1.082       .  S
C831        H843   1.082       .  S
C832        C833   1.375       .  A
C832        H844   1.082       .  S
C833        H845   1.082       .  S
C834       C3317   1.494       .  S
C835       C3275   1.486       .  S
C836       C3219   1.487       .  S
C837       C3443   1.480       .  S
N848        C853   1.353       .  A
N848        C852   1.353       .  A
N848        H880   1.038       .  S
N849        C856   1.351       .  A
N849        C857   1.351       .  A
N850        C855   1.351       .  A
N850        C854   1.349       .  A
N850        H881   1.036       .  S
N851        C858   1.350       .  A
N851        C859   1.351       .  A
C852        C860   1.387       .  A
C852        C868   1.416       .  A
C853        C869   1.414       .  A
C853        C861   1.387       .  A
C854        C862   1.387       .  A
C854        C871   1.409       .  A
C855        C870   1.409       .  A
C855        C863   1.387       .  A
C856        C868   1.414       .  A
C856        C864   1.386       .  A
C857        C871   1.413       .  A
C857        C865   1.385       .  A
C858        C866   1.386       .  A
C858        C869   1.412       .  A
C859        C867   1.386       .  A
C859        C870   1.413       .  A
C860        C861   1.373       .  A
C860        H872   1.082       .  S
C861        H873   1.082       .  S
C862        C863   1.371       .  A
C862        H874   1.082       .  S
C863        H875   1.082       .  S
C864        C865   1.377       .  A
C864        H876   1.082       .  S
C865        H877   1.082       .  S
C866        C867   1.377       .  A
C866        H878   1.082       .  S
C867        H879   1.082       .  S
C868       C3300   1.491       .  S
C869       C3373   1.486       .  S
C870       C4238   1.481       .  S
C871       C4840   1.481       .  S
N882        C887   1.354       .  A
N882        C886   1.355       .  A
N882        H914   1.035       .  S
N883        C890   1.353       .  A
N883        C891   1.351       .  A
N884        C889   1.352       .  A
N884        C888   1.351       .  A
N884        H915   1.034       .  S
N885        C892   1.353       .  A
N885        C893   1.352       .  A
C886        C894   1.387       .  A
C886        C902   1.418       .  A
C887        C903   1.419       .  A
C887        C895   1.388       .  A
C888        C896   1.388       .  A
C888        C905   1.413       .  A
C889        C904   1.412       .  A
C889        C897   1.387       .  A
C890        C902   1.415       .  A
C890        C898   1.386       .  A
C891        C905   1.416       .  A
C891        C899   1.387       .  A
C892        C900   1.387       .  A
C892        C903   1.417       .  A
C893        C901   1.386       .  A
C893        C904   1.416       .  A
C894        C895   1.374       .  A
C894        H906   1.082       .  S
C895        H907   1.082       .  S
C896        C897   1.371       .  A
C896        H908   1.082       .  S
C897        H909   1.082       .  S
C898        C899   1.374       .  A
C898        H910   1.082       .  S
C899        H911   1.082       .  S
C900        C901   1.375       .  A
C900        H912   1.082       .  S
C901        H913   1.083       .  S
C902       C3331   1.492       .  S
C903       C3261   1.493       .  S
C904       C4367   1.484       .  S
C905       C4773   1.480       .  S
N916        C921   1.354       .  A
N916        C920   1.357       .  A
N916        H948   1.036       .  S
N917        C924   1.351       .  A
N917        C925   1.351       .  A
N918        C923   1.349       .  A
N918        C922   1.347       .  A
N918        H949   1.038       .  S
N919        C926   1.351       .  A
N919        C927   1.355       .  A
C920        C928   1.386       .  A
C920        C936   1.421       .  A
C921        C937   1.422       .  A
C921        C929   1.389       .  A
C922        C930   1.387       .  A
C922        C939   1.404       .  A
C923        C938   1.406       .  A
C923        C931   1.387       .  A
C924        C936   1.415       .  A
C924        C932   1.386       .  A
C925        C939   1.413       .  A
C925        C933   1.386       .  A
C926        C934   1.388       .  A
C926        C937   1.420       .  A
C927        C935   1.384       .  A
C927        C938   1.416       .  A
C928        C929   1.377       .  A
C928        H940   1.082       .  S
C929        H941   1.082       .  S
C930        C931   1.370       .  A
C930        H942   1.083       .  S
C931        H943   1.082       .  S
C932        C933   1.377       .  A
C932        H944   1.082       .  S
C933        H945   1.082       .  S
C934        C935   1.379       .  A
C934        H946   1.082       .  S
C935        H947   1.082       .  S
C936       C3342   1.496       .  S
C937       C3359   1.491       .  S
C938       C3986   1.491       .  S
C939       C3779   1.477       .  S
N950        C955   1.357       .  A
N950        C954   1.356       .  A
N950        H982   1.026       .  S
N951        C958   1.353       .  A
N951        C959   1.354       .  A
N952        C957   1.353       .  A
N952        C956   1.352       .  A
N952        H983   1.016       .  S
N953        C960   1.351       .  A
N953        C961   1.351       .  A
C954        C962   1.388       .  A
C954        C970   1.422       .  A
C955        C971   1.420       .  A
C955        C963   1.386       .  A
C956        C964   1.389       .  A
C956        C973   1.417       .  A
C957        C972   1.415       .  A
C957        C965   1.387       .  A
C958        C970   1.419       .  A
C958        C966   1.386       .  A
C959        C973   1.422       .  A
C959        C967   1.387       .  A
C960        C968   1.386       .  A
C960        C971   1.414       .  A
C961        C969   1.388       .  A
C961        C972   1.417       .  A
C962        C963   1.373       .  A
C962        H974   1.082       .  S
C963        H975   1.082       .  S
C964        C965   1.371       .  A
C964        H976   1.082       .  S
C965        H977   1.082       .  S
C966        C967   1.377       .  A
C966        H978   1.082       .  S
C967        H979   1.082       .  S
C968        C969   1.373       .  A
C968        H980   1.082       .  S
C969        H981   1.082       .  S
C970       C3244   1.493       .  S
C971       C3384   1.490       .  S
C972       C3202   1.481       .  S
C973       C4045   1.486       .  S
C984       C3188   1.486       .  S
C984        N985   1.356       .  A
C984        N989   1.358       .  A
N985        C986   1.358       .  A
C986       C3174   1.492       .  S
C986        N987   1.362       .  A
N987        C988   1.362       .  A
C988       C3160   1.493       .  S
C988        N989   1.359       .  A
N990        C995   1.352       .  A
N990        C994   1.355       .  A
N990       H1022   1.034       .  S
N991        C998   1.351       .  A
N991        C999   1.349       .  A
N992        C997   1.351       .  A
N992        C996   1.348       .  A
N992       H1023   1.035       .  S
N993       C1000   1.350       .  A
N993       C1001   1.353       .  A
C994       C1002   1.386       .  A
C994       C1010   1.418       .  A
C995       C1011   1.421       .  A
C995       C1003   1.389       .  A
C996       C1004   1.389       .  A
C996       C1013   1.409       .  A
C997       C1012   1.407       .  A
C997       C1005   1.386       .  A
C998       C1010   1.413       .  A
C998       C1006   1.386       .  A
C999       C1013   1.411       .  A
C999       C1007   1.386       .  A
C1000      C1008   1.388       .  A
C1000      C1011   1.417       .  A
C1001      C1009   1.384       .  A
C1001      C1012   1.412       .  A
C1002      C1003   1.376       .  A
C1002      H1014   1.082       .  S
C1003      H1015   1.082       .  S
C1004      C1005   1.366       .  A
C1004      H1016   1.082       .  S
C1005      H1017   1.082       .  S
C1006      C1007   1.374       .  A
C1006      H1018   1.082       .  S
C1007      H1019   1.082       .  S
C1008      C1009   1.374       .  A
C1008      H1020   1.082       .  S
C1009      H1021   1.082       .  S
C1010      C3163   1.489       .  S
C1011      C3146   1.487       .  S
C1012      C4854   1.484       .  S
C1013      C3905   1.471       .  S
C1024      C3135   1.493   1_554  S
C1024      N1025   1.360       .  A
C1024      N1029   1.359       .  A
N1025      C1026   1.361       .  A
C1026      C3107   1.492       .  S
C1026      N1027   1.357       .  A
N1027      C1028   1.357       .  A
C1028      C3118   1.493       .  S
C1028      N1029   1.356       .  A
C1030      C3065   1.491       .  S
C1030      N1031   1.358       .  A
C1030      N1035   1.359       .  A
N1031      C1032   1.354       .  A
C1032      C3090   1.484   1_554  S
C1032      N1033   1.359       .  A
N1033      C1034   1.359       .  A
C1034      C3079   1.492       .  S
C1034      N1035   1.360       .  A
C1036      C3048   1.486       .  S
C1036      N1037   1.358       .  A
C1036      N1041   1.358       .  A
N1037      C1038   1.358       .  A
C1038      C3149   1.482       .  S
C1038      N1039   1.359       .  A
N1039      C1040   1.358       .  A
C1040      C3034   1.494       .  S
C1040      N1041   1.357       .  A
N1042      C1047   1.353       .  A
N1042      C1046   1.354       .  A
N1042      H1074   1.027       .  S
N1043      C1050   1.350       .  A
N1043      C1051   1.350       .  A
N1044      C1049   1.349       .  A
N1044      C1048   1.348       .  A
N1044      H1075   1.031       .  S
N1045      C1052   1.349       .  A
N1045      C1053   1.351       .  A
C1046      C1054   1.387       .  A
C1046      C1062   1.417       .  A
C1047      C1063   1.419       .  A
C1047      C1055   1.388       .  A
C1048      C1056   1.386       .  A
C1048      C1065   1.406       .  A
C1049      C1064   1.407       .  A
C1049      C1057   1.387       .  A
C1050      C1062   1.414       .  A
C1050      C1058   1.387       .  A
C1051      C1065   1.412       .  A
C1051      C1059   1.386       .  A
C1052      C1060   1.387       .  A
C1052      C1063   1.413       .  A
C1053      C1061   1.385       .  A
C1053      C1064   1.412       .  A
C1054      C1055   1.374       .  A
C1054      H1066   1.082       .  S
C1055      H1067   1.082       .  S
C1056      C1057   1.372       .  A
C1056      H1068   1.082       .  S
C1057      H1069   1.082       .  S
C1058      C1059   1.375       .  A
C1058      H1070   1.082       .  S
C1059      H1071   1.082       .  S
C1060      C1061   1.376       .  A
C1060      H1072   1.082       .  S
C1061      H1073   1.082       .  S
C1062      C3037   1.485       .  S
C1063      C3062   1.481       .  S
C1064      C4115   1.481       .  S
C1065      C4308   1.477       .  S
N1076      C1081   1.352       .  A
N1076      C1080   1.353       .  A
N1076      H1108   1.038       .  S
N1077      C1084   1.349       .  A
N1077      C1085   1.349       .  A
N1078      C1083   1.347       .  A
N1078      C1082   1.348       .  A
N1078      H1109   1.038       .  S
N1079      C1086   1.349       .  A
N1079      C1087   1.350       .  A
C1080      C1088   1.386       .  A
C1080      C1096   1.413       .  A
C1081      C1097   1.415       .  A
C1081      C1089   1.387       .  A
C1082      C1090   1.386       .  A
C1082      C1099   1.404       .  A
C1083      C1098   1.406       .  A
C1083      C1091   1.388       .  A
C1084      C1096   1.409       .  A
C1084      C1092   1.386       .  A
C1085      C1099   1.409       .  A
C1085      C1093   1.386       .  A
C1086      C1094   1.387       .  A
C1086      C1097   1.411       .  A
C1087      C1095   1.385       .  A
C1087      C1098   1.410       .  A
C1088      C1089   1.377       .  A
C1088      H1100   1.082       .  S
C1089      H1101   1.082       .  S
C1090      C1091   1.372       .  A
C1090      H1102   1.082       .  S
C1091      H1103   1.082       .  S
C1092      C1093   1.374       .  A
C1092      H1104   1.082       .  S
C1093      H1105   1.082       .  S
C1094      C1095   1.376       .  A
C1094      H1106   1.082       .  S
C1095      H1107   1.082       .  S
C1096      C3104   1.482       .  S
C1097      C3051   1.483       .  S
C1098      C4756   1.475       .  S
C1099      C3429   1.474       .  S
N1110      C1115   1.353       .  A
N1110      C1114   1.351       .  A
N1110      H1142   1.037       .  S
N1111      C1118   1.351       .  A
N1111      C1119   1.351       .  A
N1112      C1117   1.352       .  A
N1112      C1116   1.351       .  A
N1112      H1143   1.037       .  S
N1113      C1120   1.350       .  A
N1113      C1121   1.350       .  A
C1114      C1122   1.387       .  A
C1114      C1130   1.412       .  A
C1115      C1131   1.414       .  A
C1115      C1123   1.388       .  A
C1116      C1124   1.386       .  A
C1116      C1133   1.410       .  A
C1117      C1132   1.412       .  A
C1117      C1125   1.388       .  A
C1118      C1130   1.411       .  A
C1118      C1126   1.386       .  A
C1119      C1133   1.412       .  A
C1119      C1127   1.386       .  A
C1120      C1128   1.386       .  A
C1120      C1131   1.413       .  A
C1121      C1129   1.387       .  A
C1121      C1132   1.415       .  A
C1122      C1123   1.372       .  A
C1122      H1134   1.082       .  S
C1123      H1135   1.082       .  S
C1124      C1125   1.371       .  A
C1124      H1136   1.082       .  S
C1125      H1137   1.082       .  S
C1126      C1127   1.375       .  A
C1126      H1138   1.082       .  S
C1127      H1139   1.082       .  S
C1128      C1129   1.375       .  A
C1128      H1140   1.082       .  S
C1129      H1141   1.082       .  S
C1130      C3132   1.482       .  S
C1131      C3093   1.487       .  S
C1132      C4185   1.484       .  S
C1133      C3020   1.481       .  S
N1144      C1149   1.353       .  A
N1144      C1148   1.353       .  A
N1144      H1176   1.036       .  S
N1145      C1152   1.351       .  A
N1145      C1153   1.351       .  A
N1146      C1151   1.349       .  A
N1146      C1150   1.349       .  A
N1146      H1177   1.037       .  S
N1147      C1154   1.349       .  A
N1147      C1155   1.350       .  A
C1148      C1156   1.387       .  A
C1148      C1164   1.416       .  A
C1149      C1165   1.415       .  A
C1149      C1157   1.387       .  A
C1150      C1158   1.388       .  A
C1150      C1167   1.408       .  A
C1151      C1166   1.407       .  A
C1151      C1159   1.386       .  A
C1152      C1164   1.413       .  A
C1152      C1160   1.386       .  A
C1153      C1167   1.413       .  A
C1153      C1161   1.386       .  A
C1154      C1162   1.387       .  A
C1154      C1165   1.411       .  A
C1155      C1163   1.385       .  A
C1155      C1166   1.410       .  A
C1156      C1157   1.375       .  A
C1156      H1168   1.082       .  S
C1157      H1169   1.082       .  S
C1158      C1159   1.370       .  A
C1158      H1170   1.082       .  S
C1159      H1171   1.082       .  S
C1160      C1161   1.375       .  A
C1160      H1172   1.082       .  S
C1161      H1173   1.082       .  S
C1162      C1163   1.375       .  A
C1162      H1174   1.082       .  S
C1163      H1175   1.082       .  S
C1164      C3177   1.486       .  S
C1165      C3121   1.481       .  S
C1166      C4028   1.479       .  S
C1167      C3821   1.478       .  S
N1178      C1183   1.352       .  A
N1178      C1182   1.352       .  A
N1178      H1210   1.036       .  S
N1179      C1186   1.349       .  A
N1179      C1187   1.349       .  A
N1180      C1185   1.348       .  A
N1180      C1184   1.349       .  A
N1180      H1211   1.037       .  S
N1181      C1188   1.349       .  A
N1181      C1189   1.349       .  A
C1182      C1190   1.386       .  A
C1182      C1198   1.413       .  A
C1183      C1199   1.416       .  A
C1183      C1191   1.388       .  A
C1184      C1192   1.386       .  A
C1184      C1201   1.406       .  A
C1185      C1200   1.410       .  A
C1185      C1193   1.389       .  A
C1186      C1198   1.409       .  A
C1186      C1194   1.387       .  A
C1187      C1201   1.407       .  A
C1187      C1195   1.385       .  A
C1188      C1196   1.386       .  A
C1188      C1199   1.412       .  A
C1189      C1197   1.386       .  A
C1189      C1200   1.411       .  A
C1190      C1191   1.374       .  A
C1190      H1202   1.082       .  S
C1191      H1203   1.082       .  S
C1192      C1193   1.369       .  A
C1192      H1204   1.082       .  S
C1193      H1205   1.082       .  S
C1194      C1195   1.374       .  A
C1194      H1206   1.082       .  S
C1195      H1207   1.082       .  S
C1196      C1197   1.377       .  A
C1196      H1208   1.082       .  S
C1197      H1209   1.082       .  S
C1198      C3191   1.481       .  S
C1199      C3076   1.483       .  S
C1200      C3751   1.475       .  S
C1201      C3496   1.474       .  S
O1212      C1228   1.274       .  A
O1212     Zn1218   2.003       .  S
C1213      O1229   1.274       .  A
C1213      O1226   1.273       .  A
C1213      C3006   1.484       .  S
O1214      C1227   1.281       .  A
O1214     Cd1221   2.118       .  S
O1215      C1233   1.266       .  A
O1215     Cd1224   2.006       .  S
O1216      C1230   1.275       .  A
O1216     Cd1220   2.061       .  S
O1217      C1228   1.275       .  A
O1217     Cd1220   2.050       .  S
Zn1218     O1229   2.019       .  S
Zn1218     O1231   1.956       .  S
Zn1218     O1223   1.902       .  S
O1219      C1230   1.271       .  A
O1219     Cd1224   2.053       .  S
Cd1220     O1222   2.028       .  S
Cd1220     O1223   1.971       .  S
Cd1221     O1225   2.107       .  S
Cd1221     O1234   2.111       .  S
Cd1221     O1223   2.018       .  S
O1222      C1232   1.269       .  A
O1223     Cd1224   1.952       .  S
Cd1224     O1226   2.045       .  S
O1225      C1232   1.280       .  A
C1227      O1231   1.267       .  A
C1227      C2978   1.467       .  S
C1228      C2992   1.480       .  S
C1230      C3023   1.489       .  S
C1232      C3216   1.470       .  S
C1233      O1234   1.280       .  A
C1233      C4434   1.468       .  S
O1235      C1251   1.274       .  A
O1235     Zn1241   2.018       .  S
C1236      O1252   1.276       .  A
C1236      O1249   1.273       .  A
C1236      C4465   1.475       .  S
O1237      C1250   1.277       .  A
O1237     Cd1244   2.086   1_655  S
O1238      C1256   1.269       .  A
O1238     Cd1247   2.025   1_455  S
O1239      C1253   1.270       .  A
O1239     Cd1243   2.030   1_455  S
O1240      C1251   1.270       .  A
O1240     Cd1243   2.043   1_545  S
Zn1241     O1252   2.014   1_545  S
Zn1241     O1254   1.951       .  S
Zn1241     O1246   1.905   1_545  S
O1242      C1253   1.274       .  A
O1242     Cd1247   2.064   1_455  S
Cd1243     O1245   2.016   1_665  S
Cd1243     O1246   1.962       .  S
Cd1244     O1248   2.108       .  S
Cd1244     O1257   2.099       .  S
Cd1244     O1246   2.021   1_445  S
O1245      C1255   1.266       .  A
O1246     Cd1247   1.967       .  S
Cd1247     O1249   2.050       .  S
O1248      C1255   1.278       .  A
C1250      O1254   1.267       .  A
C1250      C2936   1.459       .  S
C1251      C2967   1.478       .  S
C1253      C3527   1.478       .  S
C1255      C2925   1.468       .  S
C1256      O1257   1.278   1_565  A
C1256      C2950   1.462       .  S
C1258      C2894   1.493       .  S
C1258      N1259   1.358       .  A
C1258      N1263   1.359       .  A
N1259      C1260   1.358       .  A
C1260      C2908   1.499   1_545  S
C1260      N1261   1.363       .  A
N1261      C1262   1.363       .  A
C1262      C2880   1.498       .  S
C1262      N1263   1.361       .  A
C1264      C2866   1.494       .  S
C1264      N1265   1.362       .  A
C1264      N1269   1.360       .  A
N1265      C1266   1.361       .  A
C1266      C2855   1.490   1_545  S
C1266      N1267   1.359       .  A
N1267      C1268   1.358       .  A
C1268      C2838   1.496       .  S
C1268      N1269   1.359       .  A
C1270      C2827   1.484       .  S
C1270      N1271   1.356       .  A
C1270      N1275   1.358       .  A
N1271      C1272   1.355       .  A
C1272      C2799   1.486       .  S
C1272      N1273   1.358       .  A
N1273      C1274   1.359       .  A
C1274      C2813   1.489       .  S
C1274      N1275   1.359       .  A
N1276      C1281   1.353       .  A
N1276      C1280   1.354       .  A
N1276      H1308   1.019       .  S
N1277      C1284   1.349       .  A
N1277      C1285   1.349       .  A
N1278      C1283   1.351       .  A
N1278      C1282   1.350       .  A
N1278      H1309   1.028       .  S
N1279      C1286   1.350       .  A
N1279      C1287   1.351       .  A
C1280      C1288   1.387       .  A
C1280      C1296   1.419       .  A
C1281      C1297   1.419       .  A
C1281      C1289   1.387       .  A
C1282      C1290   1.388       .  A
C1282      C1299   1.409       .  A
C1283      C1298   1.408       .  A
C1283      C1291   1.387       .  A
C1284      C1296   1.414       .  A
C1284      C1292   1.388       .  A
C1285      C1299   1.410       .  A
C1285      C1293   1.386       .  A
C1286      C1294   1.388       .  A
C1286      C1297   1.416       .  A
C1287      C1295   1.385       .  A
C1287      C1298   1.411       .  A
C1288      C1289   1.374       .  A
C1288      H1300   1.082       .  S
C1289      H1301   1.082       .  S
C1290      C1291   1.367       .  A
C1290      H1302   1.082       .  S
C1291      H1303   1.082       .  S
C1292      C1293   1.375       .  A
C1292      H1304   1.082       .  S
C1293      H1305   1.082       .  S
C1294      C1295   1.375       .  A
C1294      H1306   1.082       .  S
C1295      H1307   1.082       .  S
C1296      C2810   1.483       .  S
C1297      C2841   1.484       .  S
C1298      C3485   1.478       .  S
C1299      C4745   1.475       .  S
N1310      C1315   1.355       .  A
N1310      C1314   1.352       .  A
N1310      H1342   1.036       .  S
N1311      C1318   1.349       .  A
N1311      C1319   1.351       .  A
N1312      C1317   1.348       .  A
N1312      C1316   1.349       .  A
N1312      H1343   1.037       .  S
N1313      C1320   1.350       .  A
N1313      C1321   1.349       .  A
C1314      C1322   1.388       .  A
C1314      C1330   1.417       .  A
C1315      C1331   1.416       .  A
C1315      C1323   1.386       .  A
C1316      C1324   1.387       .  A
C1316      C1333   1.406       .  A
C1317      C1332   1.406       .  A
C1317      C1325   1.387       .  A
C1318      C1330   1.413       .  A
C1318      C1326   1.387       .  A
C1319      C1333   1.411       .  A
C1319      C1327   1.385       .  A
C1320      C1328   1.385       .  A
C1320      C1331   1.411       .  A
C1321      C1329   1.387       .  A
C1321      C1332   1.413       .  A
C1322      C1323   1.375       .  A
C1322      H1334   1.082       .  S
C1323      H1335   1.082       .  S
C1324      C1325   1.371       .  A
C1324      H1336   1.082       .  S
C1325      H1337   1.082       .  S
C1326      C1327   1.375       .  A
C1326      H1338   1.082       .  S
C1327      H1339   1.082       .  S
C1328      C1329   1.374       .  A
C1328      H1340   1.082       .  S
C1329      H1341   1.082       .  S
C1330      C2796   1.481       .  S
C1331      C2883   1.489       .  S
C1332      C3961   1.476       .  S
C1333      C4227   1.479       .  S
C1344      C2768   1.495       .  S
C1344      N1345   1.360       .  A
C1344      N1349   1.361       .  A
N1345      C1346   1.358       .  A
C1346      C2754   1.499       .  S
C1346      N1347   1.360       .  A
N1347      C1348   1.362       .  A
C1348      C2782   1.497       .  S
C1348      N1349   1.362       .  A
N1350      C1355   1.354       .  A
N1350      C1354   1.352       .  A
N1350      H1382   1.037       .  S
N1351      C1358   1.349       .  A
N1351      C1359   1.352       .  A
N1352      C1357   1.349       .  A
N1352      C1356   1.352       .  A
N1352      H1383   1.036       .  S
N1353      C1360   1.353       .  A
N1353      C1361   1.350       .  A
C1354      C1362   1.389       .  A
C1354      C1370   1.416       .  A
C1355      C1371   1.415       .  A
C1355      C1363   1.386       .  A
C1356      C1364   1.385       .  A
C1356      C1373   1.409       .  A
C1357      C1372   1.411       .  A
C1357      C1365   1.389       .  A
C1358      C1370   1.413       .  A
C1358      C1366   1.387       .  A
C1359      C1373   1.413       .  A
C1359      C1367   1.385       .  A
C1360      C1368   1.385       .  A
C1360      C1371   1.414       .  A
C1361      C1369   1.387       .  A
C1361      C1372   1.415       .  A
C1362      C1363   1.374       .  A
C1362      H1374   1.082       .  S
C1363      H1375   1.082       .  S
C1364      C1365   1.370       .  A
C1364      H1376   1.082       .  S
C1365      H1377   1.081       .  S
C1366      C1367   1.376       .  A
C1366      H1378   1.082       .  S
C1367      H1379   1.082       .  S
C1368      C1369   1.376       .  A
C1368      H1380   1.082       .  S
C1369      H1381   1.082       .  S
C1370      C2824   1.481       .  S
C1371      C2757   1.493       .  S
C1372      C2995   1.478       .  S
C1373      C4871   1.487       .  S
N1384      C1389   1.352       .  A
N1384      C1388   1.353       .  A
N1384      H1416   1.036       .  S
N1385      C1392   1.351       .  A
N1385      C1393   1.351       .  A
N1386      C1391   1.350       .  A
N1386      C1390   1.350       .  A
N1386      H1417   1.036       .  S
N1387      C1394   1.352       .  A
N1387      C1395   1.352       .  A
C1388      C1396   1.387       .  A
C1388      C1404   1.416       .  A
C1389      C1405   1.415       .  A
C1389      C1397   1.387       .  A
C1390      C1398   1.388       .  A
C1390      C1407   1.410       .  A
C1391      C1406   1.409       .  A
C1391      C1399   1.387       .  A
C1392      C1404   1.415       .  A
C1392      C1400   1.386       .  A
C1393      C1407   1.413       .  A
C1393      C1401   1.385       .  A
C1394      C1402   1.386       .  A
C1394      C1405   1.415       .  A
C1395      C1403   1.386       .  A
C1395      C1406   1.416       .  A
C1396      C1397   1.377       .  A
C1396      H1408   1.082       .  S
C1397      H1409   1.082       .  S
C1398      C1399   1.369       .  A
C1398      H1410   1.082       .  S
C1399      H1411   1.082       .  S
C1400      C1401   1.376       .  A
C1400      H1412   1.082       .  S
C1401      H1413   1.082       .  S
C1402      C1403   1.376       .  A
C1402      H1414   1.082       .  S
C1403      H1415   1.082       .  S
C1404      C2852   1.489       .  S
C1405      C2911   1.487       .  S
C1406      C4199   1.485       .  S
C1407      C3891   1.480       .  S
N1418      C1423   1.354       .  A
N1418      C1422   1.356       .  A
N1418      H1450   1.034       .  S
N1419      C1426   1.351       .  A
N1419      C1427   1.350       .  A
N1420      C1425   1.349       .  A
N1420      C1424   1.349       .  A
N1420      H1451   1.034       .  S
N1421      C1428   1.351       .  A
N1421      C1429   1.352       .  A
C1422      C1430   1.387       .  A
C1422      C1438   1.420       .  A
C1423      C1439   1.420       .  A
C1423      C1431   1.388       .  A
C1424      C1432   1.388       .  A
C1424      C1441   1.408       .  A
C1425      C1440   1.408       .  A
C1425      C1433   1.387       .  A
C1426      C1438   1.415       .  A
C1426      C1434   1.387       .  A
C1427      C1441   1.412       .  A
C1427      C1435   1.386       .  A
C1428      C1436   1.387       .  A
C1428      C1439   1.415       .  A
C1429      C1437   1.385       .  A
C1429      C1440   1.413       .  A
C1430      C1431   1.375       .  A
C1430      H1442   1.082       .  S
C1431      H1443   1.082       .  S
C1432      C1433   1.368       .  A
C1432      H1444   1.082       .  S
C1433      H1445   1.082       .  S
C1434      C1435   1.374       .  A
C1434      H1446   1.082       .  S
C1435      H1447   1.082       .  S
C1436      C1437   1.375       .  A
C1436      H1448   1.082       .  S
C1437      H1449   1.082       .  S
C1438      C2869   1.493       .  S
C1439      C2785   1.487       .  S
C1440      C2740   1.480       .  S
C1441      C2939   1.476       .  S
N1452      C1457   1.353       .  A
N1452      C1456   1.352       .  A
N1452      H1484   1.036       .  S
N1453      C1460   1.350       .  A
N1453      C1461   1.351       .  A
N1454      C1459   1.350       .  A
N1454      C1458   1.350       .  A
N1454      H1485   1.037       .  S
N1455      C1462   1.350       .  A
N1455      C1463   1.350       .  A
C1456      C1464   1.388       .  A
C1456      C1472   1.415       .  A
C1457      C1473   1.412       .  A
C1457      C1465   1.386       .  A
C1458      C1466   1.388       .  A
C1458      C1475   1.410       .  A
C1459      C1474   1.408       .  A
C1459      C1467   1.386       .  A
C1460      C1472   1.412       .  A
C1460      C1468   1.386       .  A
C1461      C1475   1.412       .  A
C1461      C1469   1.386       .  A
C1462      C1470   1.386       .  A
C1462      C1473   1.411       .  A
C1463      C1471   1.387       .  A
C1463      C1474   1.412       .  A
C1464      C1465   1.373       .  A
C1464      H1476   1.082       .  S
C1465      H1477   1.082       .  S
C1466      C1467   1.372       .  A
C1466      H1478   1.082       .  S
C1467      H1479   1.082       .  S
C1468      C1469   1.375       .  A
C1468      H1480   1.082       .  S
C1469      H1481   1.082       .  S
C1470      C1471   1.373       .  A
C1470      H1482   1.082       .  S
C1471      H1483   1.082       .  S
C1472      C2897   1.483       .  S
C1473      C2771   1.484       .  S
C1474      C3415   1.480       .  S
C1475      C3737   1.481       .  S
C1486      C2712   1.496   1_455  S
C1486      N1487   1.359       .  A
C1486      N1491   1.357       .  A
N1487      C1488   1.362       .  A
C1488      C2726   1.499       .  S
C1488      N1489   1.364       .  A
N1489      C1490   1.362       .  A
C1490      C2698   1.495       .  S
C1490      N1491   1.356       .  A
N1492      C1497   1.353       .  A
N1492      C1496   1.355       .  A
N1492      H1524   1.033       .  S
N1493      C1500   1.350       .  A
N1493      C1501   1.350       .  A
N1494      C1499   1.348       .  A
N1494      C1498   1.347       .  A
N1494      H1525   1.035       .  S
N1495      C1502   1.349       .  A
N1495      C1503   1.351       .  A
C1496      C1504   1.387       .  A
C1496      C1512   1.419       .  A
C1497      C1513   1.418       .  A
C1497      C1505   1.387       .  A
C1498      C1506   1.386       .  A
C1498      C1515   1.404       .  A
C1499      C1514   1.405       .  A
C1499      C1507   1.387       .  A
C1500      C1512   1.413       .  A
C1500      C1508   1.387       .  A
C1501      C1515   1.411       .  A
C1501      C1509   1.386       .  A
C1502      C1510   1.387       .  A
C1502      C1513   1.413       .  A
C1503      C1511   1.385       .  A
C1503      C1514   1.411       .  A
C1504      C1505   1.376       .  A
C1504      H1516   1.082       .  S
C1505      H1517   1.082       .  S
C1506      C1507   1.372       .  A
C1506      H1518   1.082       .  S
C1507      H1519   1.082       .  S
C1508      C1509   1.375       .  A
C1508      H1520   1.082       .  S
C1509      H1521   1.082       .  S
C1510      C1511   1.374       .  A
C1510      H1522   1.082       .  S
C1511      H1523   1.082       .  S
C1512      C2701   1.488       .  S
C1513      C2684   1.485       .  S
C1514      C4353   1.478       .  S
C1515      C3849   1.475       .  S
C1526      C2642   1.491       .  S
C1526      N1527   1.359       .  A
C1526      N1531   1.362       .  A
N1527      C1528   1.359       .  A
C1528      C2656   1.492       .  S
C1528      N1529   1.360       .  A
N1529      C1530   1.361       .  A
C1530      C2670   1.495       .  S
C1530      N1531   1.363       .  A
C1532      C2628   1.491       .  S
C1532      N1533   1.360       .  A
C1532      N1537   1.358       .  A
N1533      C1534   1.361       .  A
C1534      C2614   1.497       .  S
C1534      N1535   1.359       .  A
N1535      C1536   1.359       .  A
C1536      C2687   1.494       .  S
C1536      N1537   1.356       .  A
N1538      C1543   1.356       .  A
N1538      C1542   1.355       .  A
N1538      H1570   1.036       .  S
N1539      C1546   1.351       .  A
N1539      C1547   1.352       .  A
N1540      C1545   1.351       .  A
N1540      C1544   1.351       .  A
N1540      H1571   1.038       .  S
N1541      C1548   1.353       .  A
N1541      C1549   1.353       .  A
C1542      C1550   1.388       .  A
C1542      C1558   1.420       .  A
C1543      C1559   1.421       .  A
C1543      C1551   1.387       .  A
C1544      C1552   1.386       .  A
C1544      C1561   1.409       .  A
C1545      C1560   1.410       .  A
C1545      C1553   1.387       .  A
C1546      C1558   1.415       .  A
C1546      C1554   1.387       .  A
C1547      C1561   1.415       .  A
C1547      C1555   1.386       .  A
C1548      C1556   1.387       .  A
C1548      C1559   1.418       .  A
C1549      C1557   1.385       .  A
C1549      C1560   1.415       .  A
C1550      C1551   1.376       .  A
C1550      H1562   1.082       .  S
C1551      H1563   1.082       .  S
C1552      C1553   1.374       .  A
C1552      H1564   1.082       .  S
C1553      H1565   1.082       .  S
C1554      C1555   1.375       .  A
C1554      H1566   1.082       .  S
C1555      H1567   1.082       .  S
C1556      C1557   1.375       .  A
C1556      H1568   1.082       .  S
C1557      H1569   1.082       .  S
C1558      C2617   1.490       .  S
C1559      C2645   1.499       .  S
C1560      C4143   1.487       .  S
C1561      C4815   1.486       .  S
C1572      C2603   1.487       .  S
C1572      N1573   1.355       .  A
C1572      N1577   1.359       .  A
N1573      C1574   1.354       .  A
C1574      C2586   1.478       .  S
C1574      N1575   1.358       .  A
N1575      C1576   1.359       .  A
C1576      C2572   1.491   1_455  S
C1576      N1577   1.362       .  A
N1578      C1583   1.352       .  A
N1578      C1582   1.352       .  A
N1578      H1610   1.038       .  S
N1579      C1586   1.346       .  A
N1579      C1587   1.348       .  A
N1580      C1585   1.345       .  A
N1580      C1584   1.348       .  A
N1580      H1611   1.038       .  S
N1581      C1588   1.349       .  A
N1581      C1589   1.351       .  A
C1582      C1590   1.388       .  A
C1582      C1598   1.414       .  A
C1583      C1599   1.412       .  A
C1583      C1591   1.386       .  A
C1584      C1592   1.387       .  A
C1584      C1601   1.405       .  A
C1585      C1600   1.403       .  A
C1585      C1593   1.386       .  A
C1586      C1598   1.406       .  A
C1586      C1594   1.386       .  A
C1587      C1601   1.407       .  A
C1587      C1595   1.386       .  A
C1588      C1596   1.386       .  A
C1588      C1599   1.412       .  A
C1589      C1597   1.385       .  A
C1589      C1600   1.411       .  A
C1590      C1591   1.375       .  A
C1590      H1602   1.082       .  S
C1591      H1603   1.082       .  S
C1592      C1593   1.374       .  A
C1592      H1604   1.082       .  S
C1593      H1605   1.082       .  S
C1594      C1595   1.376       .  A
C1594      H1606   1.082       .  S
C1595      H1607   1.082       .  S
C1596      C1597   1.379       .  A
C1596      H1608   1.082       .  S
C1597      H1609   1.082       .  S
C1598      C2589   1.480       .  S
C1599      C2631   1.486       .  S
C1600      C4283   1.479       .  S
C1601      C2561   1.476       .  S
N1612      C1617   1.355       .  A
N1612      C1616   1.352       .  A
N1612      H1644   1.033       .  S
N1613      C1620   1.350       .  A
N1613      C1621   1.352       .  A
N1614      C1619   1.349       .  A
N1614      C1618   1.352       .  A
N1614      H1645   1.036       .  S
N1615      C1622   1.350       .  A
N1615      C1623   1.348       .  A
C1616      C1624   1.388       .  A
C1616      C1632   1.418       .  A
C1617      C1633   1.418       .  A
C1617      C1625   1.387       .  A
C1618      C1626   1.387       .  A
C1618      C1635   1.410       .  A
C1619      C1634   1.411       .  A
C1619      C1627   1.389       .  A
C1620      C1632   1.416       .  A
C1620      C1628   1.388       .  A
C1621      C1635   1.412       .  A
C1621      C1629   1.385       .  A
C1622      C1630   1.387       .  A
C1622      C1633   1.412       .  A
C1623      C1631   1.386       .  A
C1623      C1634   1.409       .  A
C1624      C1625   1.376       .  A
C1624      H1636   1.082       .  S
C1625      H1637   1.082       .  S
C1626      C1627   1.369       .  A
C1626      H1638   1.082       .  S
C1627      H1639   1.082       .  S
C1628      C1629   1.373       .  A
C1628      H1640   1.082       .  S
C1629      H1641   1.082       .  S
C1630      C1631   1.373       .  A
C1630      H1642   1.082       .  S
C1631      H1643   1.083       .  S
C1632      C2575   1.484       .  S
C1633      C2715   1.487       .  S
C1634      C3919   1.472       .  S
C1635      C3009   1.482       .  S
N1646      C1651   1.354       .  A
N1646      C1650   1.354       .  A
N1646      H1678   1.036       .  S
N1647      C1654   1.353       .  A
N1647      C1655   1.352       .  A
N1648      C1653   1.351       .  A
N1648      C1652   1.351       .  A
N1648      H1679   1.037       .  S
N1649      C1656   1.352       .  A
N1649      C1657   1.352       .  A
C1650      C1658   1.387       .  A
C1650      C1666   1.419       .  A
C1651      C1667   1.419       .  A
C1651      C1659   1.388       .  A
C1652      C1660   1.387       .  A
C1652      C1669   1.411       .  A
C1653      C1668   1.411       .  A
C1653      C1661   1.387       .  A
C1654      C1666   1.417       .  A
C1654      C1662   1.386       .  A
C1655      C1669   1.415       .  A
C1655      C1663   1.386       .  A
C1656      C1664   1.386       .  A
C1656      C1667   1.415       .  A
C1657      C1665   1.387       .  A
C1657      C1668   1.416       .  A
C1658      C1659   1.375       .  A
C1658      H1670   1.082       .  S
C1659      H1671   1.082       .  S
C1660      C1661   1.373       .  A
C1660      H1672   1.082       .  S
C1661      H1673   1.082       .  S
C1662      C1663   1.374       .  A
C1662      H1674   1.082       .  S
C1663      H1675   1.082       .  S
C1664      C1665   1.375       .  A
C1664      H1676   1.082       .  S
C1665      H1677   1.082       .  S
C1666      C2673   1.495       .  S
C1667      C2729   1.488       .  S
C1668      C2953   1.483       .  S
C1669      C3944   1.483       .  S
N1680      C1685   1.354       .  A
N1680      C1684   1.354       .  A
N1680      H1712   1.037       .  S
N1681      C1688   1.347       .  A
N1681      C1689   1.350       .  A
N1682      C1687   1.349       .  A
N1682      C1686   1.349       .  A
N1682      H1713   1.038       .  S
N1683      C1690   1.351       .  A
N1683      C1691   1.352       .  A
C1684      C1692   1.387       .  A
C1684      C1700   1.418       .  A
C1685      C1701   1.419       .  A
C1685      C1693   1.387       .  A
C1686      C1694   1.387       .  A
C1686      C1703   1.407       .  A
C1687      C1702   1.405       .  A
C1687      C1695   1.386       .  A
C1688      C1700   1.410       .  A
C1688      C1696   1.388       .  A
C1689      C1703   1.408       .  A
C1689      C1697   1.385       .  A
C1690      C1698   1.387       .  A
C1690      C1701   1.415       .  A
C1691      C1699   1.384       .  A
C1691      C1702   1.412       .  A
C1692      C1693   1.378       .  A
C1692      H1704   1.082       .  S
C1693      H1705   1.082       .  S
C1694      C1695   1.371       .  A
C1694      H1706   1.082       .  S
C1695      H1707   1.082       .  S
C1696      C1697   1.375       .  A
C1696      H1708   1.082       .  S
C1697      H1709   1.082       .  S
C1698      C1699   1.377       .  A
C1698      H1710   1.082       .  S
C1699      H1711   1.082       .  S
C1700      C2600   1.483       .  S
C1701      C2659   1.492       .  S
C1702      C4087   1.482       .  S
C1703      C4014   1.477       .  S
C1714      C2519   1.497       .  S
C1714      N1715   1.360       .  A
C1714      N1719   1.364       .  A
N1715      C1716   1.360       .  A
C1716      C2530   1.493       .  S
C1716      N1717   1.360       .  A
N1717      C1718   1.361       .  A
C1718      C2544   1.503       .  S
C1718      N1719   1.362       .  A
N1720      C1725   1.353       .  A
N1720      C1724   1.354       .  A
N1720      H1752   1.034       .  S
N1721      C1728   1.351       .  A
N1721      C1729   1.350       .  A
N1722      C1727   1.351       .  A
N1722      C1726   1.350       .  A
N1722      H1753   1.036       .  S
N1723      C1730   1.350       .  A
N1723      C1731   1.351       .  A
C1724      C1732   1.386       .  A
C1724      C1740   1.416       .  A
C1725      C1741   1.418       .  A
C1725      C1733   1.389       .  A
C1726      C1734   1.388       .  A
C1726      C1743   1.411       .  A
C1727      C1742   1.410       .  A
C1727      C1735   1.387       .  A
C1728      C1740   1.414       .  A
C1728      C1736   1.386       .  A
C1729      C1743   1.415       .  A
C1729      C1737   1.387       .  A
C1730      C1738   1.387       .  A
C1730      C1741   1.413       .  A
C1731      C1739   1.385       .  A
C1731      C1742   1.412       .  A
C1732      C1733   1.373       .  A
C1732      H1744   1.082       .  S
C1733      H1745   1.082       .  S
C1734      C1735   1.372       .  A
C1734      H1746   1.083       .  S
C1735      H1747   1.082       .  S
C1736      C1737   1.375       .  A
C1736      H1748   1.082       .  S
C1737      H1749   1.082       .  S
C1738      C1739   1.375       .  A
C1738      H1750   1.082       .  S
C1739      H1751   1.082       .  S
C1740      C2533   1.489       .  S
C1741      C2502   1.483       .  S
C1742      C4798   1.482       .  S
C1743      C4731   1.482       .  S
C1754      C2505   1.495       .  S
C1754      N1755   1.359       .  A
C1754      N1759   1.359       .  A
N1755      C1756   1.358       .  A
C1756      C2488   1.495       .  S
C1756      N1757   1.360       .  A
N1757      C1758   1.361       .  A
C1758      C2474   1.493       .  S
C1758      N1759   1.359       .  A
C1760      C2446   1.494       .  S
C1760      N1761   1.359       .  A
C1760      N1765   1.360       .  A
N1761      C1762   1.359       .  A
C1762      C2460   1.496   1_655  S
C1762      N1763   1.362       .  A
N1763      C1764   1.361       .  A
C1764      C2435   1.493       .  S
C1764      N1765   1.360       .  A
C1766      C2421   1.498   1_655  S
C1766      N1767   1.361       .  A
C1766      N1771   1.364       .  A
N1767      C1768   1.360       .  A
C1768      C2390   1.495       .  S
C1768      N1769   1.359       .  A
N1769      C1770   1.360       .  A
C1770      C2404   1.504       .  S
C1770      N1771   1.363       .  A
N1772      C1777   1.356       .  A
N1772      C1776   1.354       .  A
N1772      H1804   1.036       .  S
N1773      C1780   1.351       .  A
N1773      C1781   1.353       .  A
N1774      C1779   1.349       .  A
N1774      C1778   1.351       .  A
N1774      H1805   1.034       .  S
N1775      C1782   1.354       .  A
N1775      C1783   1.352       .  A
C1776      C1784   1.387       .  A
C1776      C1792   1.418       .  A
C1777      C1793   1.420       .  A
C1777      C1785   1.387       .  A
C1778      C1786   1.387       .  A
C1778      C1795   1.410       .  A
C1779      C1794   1.411       .  A
C1779      C1787   1.388       .  A
C1780      C1792   1.415       .  A
C1780      C1788   1.387       .  A
C1781      C1795   1.415       .  A
C1781      C1789   1.386       .  A
C1782      C1790   1.386       .  A
C1782      C1793   1.418       .  A
C1783      C1791   1.387       .  A
C1783      C1794   1.418       .  A
C1784      C1785   1.375       .  A
C1784      H1796   1.082       .  S
C1785      H1797   1.082       .  S
C1786      C1787   1.372       .  A
C1786      H1798   1.082       .  S
C1787      H1799   1.082       .  S
C1788      C1789   1.374       .  A
C1788      H1800   1.082       .  S
C1789      H1801   1.082       .  S
C1790      C1791   1.376       .  A
C1790      H1802   1.082       .  S
C1791      H1803   1.082       .  S
C1792      C2463   1.488       .  S
C1793      C2418   1.501       .  S
C1794      C4252   1.480       .  S
C1795      C4336   1.485       .  S
N1806      C1811   1.353       .  A
N1806      C1810   1.356       .  A
N1806      H1838   1.035       .  S
N1807      C1814   1.352       .  A
N1807      C1815   1.351       .  A
N1808      C1813   1.351       .  A
N1808      C1812   1.348       .  A
N1808      H1839   1.035       .  S
N1809      C1816   1.351       .  A
N1809      C1817   1.353       .  A
C1810      C1818   1.387       .  A
C1810      C1826   1.419       .  A
C1811      C1827   1.418       .  A
C1811      C1819   1.388       .  A
C1812      C1820   1.388       .  A
C1812      C1829   1.408       .  A
C1813      C1828   1.408       .  A
C1813      C1821   1.387       .  A
C1814      C1826   1.415       .  A
C1814      C1822   1.386       .  A
C1815      C1829   1.414       .  A
C1815      C1823   1.387       .  A
C1816      C1824   1.387       .  A
C1816      C1827   1.417       .  A
C1817      C1825   1.385       .  A
C1817      C1828   1.416       .  A
C1818      C1819   1.374       .  A
C1818      H1830   1.082       .  S
C1819      H1831   1.082       .  S
C1820      C1821   1.369       .  A
C1820      H1832   1.082       .  S
C1821      H1833   1.082       .  S
C1822      C1823   1.375       .  A
C1822      H1834   1.082       .  S
C1823      H1835   1.082       .  S
C1824      C1825   1.375       .  A
C1824      H1836   1.082       .  S
C1825      H1837   1.082       .  S
C1826      C2393   1.494       .  S
C1827      C2477   1.486       .  S
C1828      C2981   1.485       .  S
C1829      C2376   1.474       .  S
N1840      C1845   1.357       .  A
N1840      C1844   1.355       .  A
N1840      H1872   1.034       .  S
N1841      C1848   1.351       .  A
N1841      C1849   1.354       .  A
N1842      C1847   1.349       .  A
N1842      C1846   1.352       .  A
N1842      H1873   1.036       .  S
N1843      C1850   1.353       .  A
N1843      C1851   1.352       .  A
C1844      C1852   1.388       .  A
C1844      C1860   1.422       .  A
C1845      C1861   1.420       .  A
C1845      C1853   1.386       .  A
C1846      C1854   1.387       .  A
C1846      C1863   1.409       .  A
C1847      C1862   1.410       .  A
C1847      C1855   1.388       .  A
C1848      C1860   1.418       .  A
C1848      C1856   1.388       .  A
C1849      C1863   1.415       .  A
C1849      C1857   1.385       .  A
C1850      C1858   1.386       .  A
C1850      C1861   1.417       .  A
C1851      C1859   1.386       .  A
C1851      C1862   1.415       .  A
C1852      C1853   1.375       .  A
C1852      H1864   1.082       .  S
C1853      H1865   1.082       .  S
C1854      C1855   1.369       .  A
C1854      H1866   1.082       .  S
C1855      H1867   1.082       .  S
C1856      C1857   1.377       .  A
C1856      H1868   1.082       .  S
C1857      H1869   1.082       .  S
C1858      C1859   1.378       .  A
C1858      H1870   1.082       .  S
C1859      H1871   1.082       .  S
C1860      C2449   1.490       .  S
C1861      C2547   1.496       .  S
C1862      C3457   1.481       .  S
C1863      C4059   1.488       .  S
N1874      C1879   1.353       .  A
N1874      C1878   1.356       .  A
N1874      H1906   1.037       .  S
N1875      C1882   1.354       .  A
N1875      C1883   1.351       .  A
N1876      C1881   1.354       .  A
N1876      C1880   1.351       .  A
N1876      H1907   1.036       .  S
N1877      C1884   1.351       .  A
N1877      C1885   1.354       .  A
C1878      C1886   1.387       .  A
C1878      C1894   1.419       .  A
C1879      C1895   1.417       .  A
C1879      C1887   1.387       .  A
C1880      C1888   1.388       .  A
C1880      C1897   1.412       .  A
C1881      C1896   1.414       .  A
C1881      C1889   1.387       .  A
C1882      C1894   1.417       .  A
C1882      C1890   1.386       .  A
C1883      C1897   1.415       .  A
C1883      C1891   1.386       .  A
C1884      C1892   1.387       .  A
C1884      C1895   1.417       .  A
C1885      C1893   1.385       .  A
C1885      C1896   1.417       .  A
C1886      C1887   1.373       .  A
C1886      H1898   1.082       .  S
C1887      H1899   1.082       .  S
C1888      C1889   1.369       .  A
C1888      H1900   1.082       .  S
C1889      H1901   1.082       .  S
C1890      C1891   1.376       .  A
C1890      H1902   1.082       .  S
C1891      H1903   1.082       .  S
C1892      C1893   1.376       .  A
C1892      H1904   1.082       .  S
C1893      H1905   1.082       .  S
C1894      C2432   1.500       .  S
C1895      C2491   1.488       .  S
C1896      C3863   1.494       .  S
C1897      C3807   1.479       .  S
N1908      C1913   1.356       .  A
N1908      C1912   1.355       .  A
N1908      H1940   1.036       .  S
N1909      C1916   1.349       .  A
N1909      C1917   1.352       .  A
N1910      C1915   1.348       .  A
N1910      C1914   1.350       .  A
N1910      H1941   1.039       .  S
N1911      C1918   1.352       .  A
N1911      C1919   1.351       .  A
C1912      C1920   1.387       .  A
C1912      C1928   1.419       .  A
C1913      C1929   1.420       .  A
C1913      C1921   1.387       .  A
C1914      C1922   1.387       .  A
C1914      C1931   1.407       .  A
C1915      C1930   1.405       .  A
C1915      C1923   1.386       .  A
C1916      C1928   1.413       .  A
C1916      C1924   1.387       .  A
C1917      C1931   1.414       .  A
C1917      C1925   1.386       .  A
C1918      C1926   1.386       .  A
C1918      C1929   1.415       .  A
C1919      C1927   1.386       .  A
C1919      C1930   1.413       .  A
C1920      C1921   1.375       .  A
C1920      H1932   1.082       .  S
C1921      H1933   1.082       .  S
C1922      C1923   1.373       .  A
C1922      H1934   1.082       .  S
C1923      H1935   1.082       .  S
C1924      C1925   1.376       .  A
C1924      H1936   1.082       .  S
C1925      H1937   1.082       .  S
C1926      C1927   1.377       .  A
C1926      H1938   1.082       .  S
C1927      H1939   1.082       .  S
C1928      C2516   1.489       .  S
C1929      C2407   1.494       .  S
C1930      C2964   1.480       .  S
C1931      C3513   1.486       .  S
O1942      C1958   1.274       .  A
O1942     Zn1948   2.005   1_455  S
C1943      O1959   1.272       .  A
C1943      O1956   1.272       .  A
C1943      C2743   1.479       .  S
O1944      C1957   1.274       .  A
O1944     Cd1951   2.084       .  S
O1945      C1963   1.269       .  A
O1945     Cd1954   2.030   1_655  S
O1946      C1960   1.273       .  A
O1946     Cd1950   2.049       .  S
O1947      C1958   1.272       .  A
O1947     Cd1950   2.052       .  S
Zn1948     O1959   1.995       .  S
Zn1948     O1961   1.941       .  S
Zn1948     O1953   1.904   1_655  S
O1949      C1960   1.272       .  A
O1949     Cd1954   2.041       .  S
Cd1950     O1952   2.031       .  S
Cd1950     O1953   1.972       .  S
Cd1951     O1955   2.086   1_655  S
Cd1951     O1964   2.084       .  S
Cd1951     O1953   2.019   1_655  S
O1952      C1962   1.269       .  A
O1953     Cd1954   1.971       .  S
Cd1954     O1956   2.055   1_455  S
O1955      C1962   1.276       .  A
C1957      O1961   1.265       .  A
C1957      C2379   1.453       .  S
C1958      C2558   1.482       .  S
C1960      C2362   1.469       .  S
C1962      C3205   1.461       .  S
C1963      O1964   1.276       .  A
C1963      C4381   1.467       .  S
C1965      C2334   1.489   1_554  S
C1965      N1966   1.361       .  A
C1965      N1970   1.360       .  A
N1966      C1967   1.360       .  A
C1967      C2351   1.489   1_455  S
C1967      N1968   1.355       .  A
N1968      C1969   1.356       .  A
C1969      C2323   1.486       .  S
C1969      N1970   1.358       .  A
N1971      C1976   1.356       .  A
N1971      C1975   1.352       .  A
N1971      H2003   1.037       .  S
N1972      C1979   1.347       .  A
N1972      C1980   1.352       .  A
N1973      C1978   1.347       .  A
N1973      C1977   1.349       .  A
N1973      H2004   1.037       .  S
N1974      C1981   1.351       .  A
N1974      C1982   1.350       .  A
C1975      C1983   1.388       .  A
C1975      C1991   1.418       .  A
C1976      C1992   1.417       .  A
C1976      C1984   1.386       .  A
C1977      C1985   1.386       .  A
C1977      C1994   1.405       .  A
C1978      C1993   1.406       .  A
C1978      C1986   1.388       .  A
C1979      C1991   1.412       .  A
C1979      C1987   1.389       .  A
C1980      C1994   1.409       .  A
C1980      C1988   1.384       .  A
C1981      C1989   1.385       .  A
C1981      C1992   1.412       .  A
C1982      C1990   1.386       .  A
C1982      C1993   1.411       .  A
C1983      C1984   1.377       .  A
C1983      H1995   1.082       .  S
C1984      H1996   1.082       .  S
C1985      C1986   1.371       .  A
C1985      H1997   1.082       .  S
C1986      H1998   1.082       .  S
C1987      C1988   1.376       .  A
C1987      H1999   1.082       .  S
C1988      H2000   1.082       .  S
C1989      C1990   1.376       .  A
C1989      H2001   1.082       .  S
C1990      H2002   1.082       .  S
C1991      C2320   1.480       .  S
C1992      C2306   1.493       .  S
C1993      C4297   1.474       .  S
C1994      C4003   1.480       .  S
C2005      C2267   1.495       .  S
C2005      N2006   1.360       .  A
C2005      N2010   1.362       .  A
N2006      C2007   1.358       .  A
C2007      C2295   1.482       .  S
C2007      N2008   1.355       .  A
N2008      C2009   1.355       .  A
C2009      C2278   1.492   1_455  S
C2009      N2010   1.362       .  A
C2011      C2309   1.499       .  S
C2011      N2012   1.362       .  A
C2011      N2016   1.363       .  A
N2012      C2013   1.361       .  A
C2013      C2250   1.498       .  S
C2013      N2014   1.359       .  A
N2014      C2015   1.358       .  A
C2015      C2236   1.499       .  S
C2015      N2016   1.363       .  A
N2017      C2022   1.353       .  A
N2017      C2021   1.355       .  A
N2017      H2049   1.037       .  S
N2018      C2025   1.352       .  A
N2018      C2026   1.351       .  A
N2019      C2024   1.351       .  A
N2019      C2023   1.348       .  A
N2019      H2050   1.036       .  S
N2020      C2027   1.350       .  A
N2020      C2028   1.353       .  A
C2021      C2029   1.385       .  A
C2021      C2037   1.416       .  A
C2022      C2038   1.419       .  A
C2022      C2030   1.389       .  A
C2023      C2031   1.386       .  A
C2023      C2040   1.408       .  A
C2024      C2039   1.411       .  A
C2024      C2032   1.388       .  A
C2025      C2037   1.413       .  A
C2025      C2033   1.386       .  A
C2026      C2040   1.412       .  A
C2026      C2034   1.386       .  A
C2027      C2035   1.387       .  A
C2027      C2038   1.415       .  A
C2028      C2036   1.386       .  A
C2028      C2039   1.415       .  A
C2029      C2030   1.375       .  A
C2029      H2041   1.082       .  S
C2030      H2042   1.082       .  S
C2031      C2032   1.371       .  A
C2031      H2043   1.082       .  S
C2032      H2044   1.082       .  S
C2033      C2034   1.375       .  A
C2033      H2045   1.082       .  S
C2034      H2046   1.082       .  S
C2035      C2036   1.378       .  A
C2035      H2047   1.082       .  S
C2036      H2048   1.082       .  S
C2037      C2239   1.494       .  S
C2038      C2264   1.486       .  S
C2039      C2922   1.486       .  S
C2040      C4210   1.478       .  S
C2051      C2197   1.493       .  S
C2051      N2052   1.363       .  A
C2051      N2056   1.358       .  A
N2052      C2053   1.364       .  A
C2053      C2211   1.493   1_545  S
C2053      N2054   1.355       .  A
N2054      C2055   1.354       .  A
C2055      C2222   1.482   1_554  S
C2055      N2056   1.354       .  A
N2057      C2062   1.354       .  A
N2057      C2061   1.354       .  A
N2057      H2089   1.034       .  S
N2058      C2065   1.349       .  A
N2058      C2066   1.350       .  A
N2059      C2064   1.349       .  A
N2059      C2063   1.349       .  A
N2059      H2090   1.037       .  S
N2060      C2067   1.350       .  A
N2060      C2068   1.351       .  A
C2061      C2069   1.387       .  A
C2061      C2077   1.418       .  A
C2062      C2078   1.419       .  A
C2062      C2070   1.388       .  A
C2063      C2071   1.387       .  A
C2063      C2080   1.406       .  A
C2064      C2079   1.407       .  A
C2064      C2072   1.387       .  A
C2065      C2077   1.412       .  A
C2065      C2073   1.387       .  A
C2066      C2080   1.409       .  A
C2066      C2074   1.385       .  A
C2067      C2075   1.387       .  A
C2067      C2078   1.414       .  A
C2068      C2076   1.385       .  A
C2068      C2079   1.412       .  A
C2069      C2070   1.375       .  A
C2069      H2081   1.082       .  S
C2070      H2082   1.082       .  S
C2071      C2072   1.370       .  A
C2071      H2083   1.082       .  S
C2072      H2084   1.082       .  S
C2073      C2074   1.375       .  A
C2073      H2085   1.082       .  S
C2074      H2086   1.082       .  S
C2075      C2076   1.376       .  A
C2075      H2087   1.082       .  S
C2076      H2088   1.082       .  S
C2077      C2194   1.485       .  S
C2078      C2253   1.487       .  S
C2079      C4717   1.481       .  S
C2080      C3720   1.477       .  S
N2091      C2096   1.352       .  A
N2091      C2095   1.354       .  A
N2091      H2123   1.038       .  S
N2092      C2099   1.350       .  A
N2092      C2100   1.349       .  A
N2093      C2098   1.349       .  A
N2093      C2097   1.345       .  A
N2093      H2124   1.039       .  S
N2094      C2101   1.348       .  A
N2094      C2102   1.351       .  A
C2095      C2103   1.387       .  A
C2095      C2111   1.416       .  A
C2096      C2112   1.415       .  A
C2096      C2104   1.387       .  A
C2097      C2105   1.388       .  A
C2097      C2114   1.403       .  A
C2098      C2113   1.403       .  A
C2098      C2106   1.386       .  A
C2099      C2111   1.410       .  A
C2099      C2107   1.386       .  A
C2100      C2114   1.410       .  A
C2100      C2108   1.386       .  A
C2101      C2109   1.387       .  A
C2101      C2112   1.411       .  A
C2102      C2110   1.385       .  A
C2102      C2113   1.411       .  A
C2103      C2104   1.377       .  A
C2103      H2115   1.082       .  S
C2104      H2116   1.082       .  S
C2105      C2106   1.371       .  A
C2105      H2117   1.083       .  S
C2106      H2118   1.082       .  S
C2107      C2108   1.376       .  A
C2107      H2119   1.082       .  S
C2108      H2120   1.082       .  S
C2109      C2110   1.374       .  A
C2109      H2121   1.082       .  S
C2110      H2122   1.082       .  S
C2111      C2337   1.487       .  S
C2112      C2225   1.482       .  S
C2113      C3930   1.483       .  S
C2114      C2365   1.474       .  S
N2125      C2130   1.352       .  A
N2125      C2129   1.354       .  A
N2125      H2157   1.036       .  S
N2126      C2133   1.349       .  A
N2126      C2134   1.349       .  A
N2127      C2132   1.349       .  A
N2127      C2131   1.350       .  A
N2127      H2158   1.037       .  S
N2128      C2135   1.351       .  A
N2128      C2136   1.351       .  A
C2129      C2137   1.387       .  A
C2129      C2145   1.416       .  A
C2130      C2146   1.416       .  A
C2130      C2138   1.388       .  A
C2131      C2139   1.387       .  A
C2131      C2148   1.407       .  A
C2132      C2147   1.408       .  A
C2132      C2140   1.387       .  A
C2133      C2145   1.411       .  A
C2133      C2141   1.387       .  A
C2134      C2148   1.409       .  A
C2134      C2142   1.385       .  A
C2135      C2143   1.386       .  A
C2135      C2146   1.413       .  A
C2136      C2144   1.386       .  A
C2136      C2147   1.413       .  A
C2137      C2138   1.374       .  A
C2137      H2149   1.082       .  S
C2138      H2150   1.082       .  S
C2139      C2140   1.371       .  A
C2139      H2151   1.082       .  S
C2140      H2152   1.082       .  S
C2141      C2142   1.373       .  A
C2141      H2153   1.082       .  S
C2142      H2154   1.082       .  S
C2143      C2144   1.376       .  A
C2143      H2155   1.082       .  S
C2144      H2156   1.083       .  S
C2145      C2292   1.486       .  S
C2146      C2208   1.485       .  S
C2147      C4073   1.480       .  S
C2148      C3790   1.476       .  S
N2159      C2164   1.351       .  A
N2159      C2163   1.352       .  A
N2159      H2191   1.037       .  S
N2160      C2167   1.349       .  A
N2160      C2168   1.348       .  A
N2161      C2166   1.348       .  A
N2161      C2165   1.349       .  A
N2161      H2192   1.036       .  S
N2162      C2169   1.350       .  A
N2162      C2170   1.351       .  A
C2163      C2171   1.387       .  A
C2163      C2179   1.412       .  A
C2164      C2180   1.413       .  A
C2164      C2172   1.387       .  A
C2165      C2173   1.387       .  A
C2165      C2182   1.406       .  A
C2166      C2181   1.407       .  A
C2166      C2174   1.388       .  A
C2167      C2179   1.409       .  A
C2167      C2175   1.386       .  A
C2168      C2182   1.410       .  A
C2168      C2176   1.387       .  A
C2169      C2177   1.387       .  A
C2169      C2180   1.413       .  A
C2170      C2178   1.385       .  A
C2170      C2181   1.412       .  A
C2171      C2172   1.375       .  A
C2171      H2183   1.082       .  S
C2172      H2184   1.082       .  S
C2173      C2174   1.370       .  A
C2173      H2185   1.082       .  S
C2174      H2186   1.082       .  S
C2175      C2176   1.373       .  A
C2175      H2187   1.082       .  S
C2176      H2188   1.082       .  S
C2177      C2178   1.377       .  A
C2177      H2189   1.082       .  S
C2178      H2190   1.082       .  S
C2179      C2348   1.481       .  S
C2180      C2281   1.482       .  S
C2181      C3468   1.478       .  S
C2182      C3401   1.472       .  S
C2193      C2194   1.401       .  A
C2193      C2198   1.406       .  A
C2193      H2200   1.084       .  S
C2194      C2195   1.407       .  A
C2195      C2196   1.396       .  A
C2195      N2202   1.433       .  S
C2196      C2197   1.411       .  A
C2196      H2201   1.083       .  S
C2197      C2198   1.416       .  A
C2198      N2199   1.432       .  S
N2199      H2203   1.046       .  S
N2199      H2204   1.045       .  S
N2202      H2205   1.045       .  S
N2202      H2206   1.045       .  S
C2207      C2208   1.397       .  A
C2207      C2212   1.396       .  A
C2207      H2214   1.084       .  S
C2208      C2209   1.404       .  A
C2209      C2210   1.405       .  A
C2209      N2216   1.432       .  S
C2210      C2211   1.409       .  A
C2210      H2215   1.083       .  S
C2211      C2212   1.426       .  A
C2212      N2213   1.432   1_565  S
N2213      H2217   1.045       .  S
N2213      H2218   1.045       .  S
N2216      H2219   1.046       .  S
N2216      H2220   1.045       .  S
C2221      C2222   1.407       .  A
C2221      C2226   1.396       .  A
C2221      H2228   1.082       .  S
C2222      C2223   1.412       .  A
C2223      C2224   1.401       .  A
C2223      N2230   1.432       .  S
C2224      C2225   1.401       .  A
C2224      H2229   1.084       .  S
C2225      C2226   1.409       .  A
C2226      N2227   1.433       .  S
N2227      H2231   1.046       .  S
N2227      H2232   1.044       .  S
N2230      H2233   1.046       .  S
N2230      H2234   1.046       .  S
C2235      C2236   1.409       .  A
C2235      C2240   1.410       .  A
C2235      H2242   1.083       .  S
C2236      C2237   1.424       .  A
C2237      C2238   1.400       .  A
C2237      N2244   1.431       .  S
C2238      C2239   1.399       .  A
C2238      H2243   1.084       .  S
C2239      C2240   1.410       .  A
C2240      N2241   1.437       .  S
N2241      H2245   1.046       .  S
N2241      H2246   1.046       .  S
N2244      H2247   1.045       .  S
N2244      H2248   1.043       .  S
C2249      C2250   1.411       .  A
C2249      C2254   1.399       .  A
C2249      H2256   1.080       .  S
C2250      C2251   1.418       .  A
C2251      C2252   1.406       .  A
C2251      N2258   1.432       .  S
C2252      C2253   1.400       .  A
C2252      H2257   1.084       .  S
C2253      C2254   1.408       .  A
C2254      N2255   1.433       .  S
N2255      H2259   1.045       .  S
N2255      H2260   1.045       .  S
N2258      H2261   1.046       .  S
N2258      H2262   1.045       .  S
C2263      C2264   1.399       .  A
C2263      C2268   1.404       .  A
C2263      H2270   1.084       .  S
C2264      C2265   1.409       .  A
C2265      C2266   1.400       .  A
C2265      N2272   1.432       .  S
C2266      C2267   1.410       .  A
C2266      H2271   1.083       .  S
C2267      C2268   1.419       .  A
C2268      N2269   1.432       .  S
N2269      H2273   1.046       .  S
N2269      H2274   1.046       .  S
N2272      H2275   1.045       .  S
N2272      H2276   1.046       .  S
C2277      C2278   1.409       .  A
C2277      C2282   1.399       .  A
C2277      H2284   1.083       .  S
C2278      C2279   1.426       .  A
C2279      C2280   1.397       .  A
C2279      N2286   1.432       .  S
C2280      C2281   1.397       .  A
C2280      H2285   1.084       .  S
C2281      C2282   1.408       .  A
C2282      N2283   1.432       .  S
N2283      H2287   1.045       .  S
N2283      H2288   1.045       .  S
N2286      H2289   1.045       .  S
N2286      H2290   1.045   1_655  S
C2291      C2292   1.402       .  A
C2291      C2296   1.405       .  A
C2291      H2298   1.084       .  S
C2292      C2293   1.407       .  A
C2293      C2294   1.402   1_565  A
C2293      N2300   1.438       .  S
C2294      C2295   1.406       .  A
C2294      H2299   1.082       .  S
C2295      C2296   1.414   1_545  A
C2296      N2297   1.437       .  S
N2297      H2301   1.046       .  S
N2297      H2302   1.045       .  S
N2300      H2303   1.046       .  S
N2300      H2304   1.045       .  S
C2305      C2306   1.401       .  A
C2305      C2310   1.410       .  A
C2305      H2312   1.084       .  S
C2306      C2307   1.410       .  A
C2307      C2308   1.402       .  A
C2307      N2314   1.433       .  S
C2308      C2309   1.410       .  A
C2308      H2313   1.083       .  S
C2309      C2310   1.420       .  A
C2310      N2311   1.437       .  S
N2311      H2315   1.046       .  S
N2311      H2316   1.046       .  S
N2314      H2317   1.045       .  S
N2314      H2318   1.045       .  S
C2319      C2320   1.398       .  A
C2319      C2324   1.396       .  A
C2319      H2326   1.084       .  S
C2320      C2321   1.409       .  A
C2321      C2322   1.397       .  A
C2321      N2328   1.433       .  S
C2322      C2323   1.409       .  A
C2322      H2327   1.083       .  S
C2323      C2324   1.420       .  A
C2324      N2325   1.431       .  S
N2325      H2329   1.043       .  S
N2325      H2330   1.045       .  S
N2328      H2331   1.045       .  S
N2328      H2332   1.045       .  S
C2333      C2334   1.408       .  A
C2333      C2338   1.403       .  A
C2333      H2340   1.083       .  S
C2334      C2335   1.415       .  A
C2335      C2336   1.405       .  A
C2335      N2342   1.432       .  S
C2336      C2337   1.401       .  A
C2336      H2341   1.084       .  S
C2337      C2338   1.405       .  A
C2338      N2339   1.432       .  S
N2339      H2343   1.045       .  S
N2339      H2344   1.046       .  S
N2342      H2345   1.046       .  S
N2342      H2346   1.045       .  S
C2347      C2348   1.398       .  A
C2347      C2352   1.404       .  A
C2347      H2354   1.084       .  S
C2348      C2349   1.405       .  A
C2349      C2350   1.404       .  A
C2349      N2356   1.437       .  S
C2350      C2351   1.408       .  A
C2350      H2355   1.083       .  S
C2351      C2352   1.420       .  A
C2352      N2353   1.438       .  S
N2353      H2357   1.045       .  S
N2353      H2358   1.046       .  S
N2356      H2359   1.046       .  S
N2356      H2360   1.046       .  S
C2361      C2362   1.408       .  A
C2361      C2366   1.400       .  A
C2361      H2368   1.084       .  S
C2362      C2363   1.409       .  A
C2363      C2364   1.400       .  A
C2363      N2370   1.437       .  S
C2364      C2365   1.402       .  A
C2364      H2369   1.084       .  S
C2365      C2366   1.404       .  A
C2366      N2367   1.438       .  S
N2367      H2371   1.045       .  S
N2367      H2372   1.046       .  S
N2370      H2373   1.046       .  S
N2370      H2374   1.045       .  S
C2375      C2376   1.398       .  A
C2375      C2380   1.392       .  A
C2375      H2382   1.084       .  S
C2376      C2377   1.411       .  A
C2377      C2378   1.398       .  A
C2377      N2384   1.432       .  S
C2378      C2379   1.401       .  A
C2378      H2383   1.084       .  S
C2379      C2380   1.412       .  A
C2380      N2381   1.434       .  S
N2381      H2385   1.045       .  S
N2381      H2386   1.046       .  S
N2384      H2387   1.045       .  S
N2384      H2388   1.045       .  S
C2389      C2390   1.409       .  A
C2389      C2394   1.406       .  A
C2389      H2396   1.083       .  S
C2390      C2391   1.418       .  A
C2391      C2392   1.410       .  A
C2391      N2398   1.437       .  S
C2392      C2393   1.403       .  A
C2392      H2397   1.084       .  S
C2393      C2394   1.408       .  A
C2394      N2395   1.438       .  S
N2395      H2399   1.045       .  S
N2395      H2400   1.046       .  S
N2398      H2401   1.046       .  S
N2398      H2402   1.046       .  S
C2403      C2404   1.413       .  A
C2403      C2408   1.408       .  A
C2403      H2410   1.083       .  S
C2404      C2405   1.424       .  A
C2405      C2406   1.404       .  A
C2405      N2412   1.432       .  S
C2406      C2407   1.401       .  A
C2406      H2411   1.084       .  S
C2407      C2408   1.406       .  A
C2408      N2409   1.438       .  S
N2409      H2413   1.045       .  S
N2409      H2414   1.046       .  S
N2412      H2415   1.045       .  S
N2412      H2416   1.044       .  S
C2417      C2418   1.404       .  A
C2417      C2422   1.406       .  A
C2417      H2424   1.084       .  S
C2418      C2419   1.420       .  A
C2419      C2420   1.408       .  A
C2419      N2426   1.439       .  S
C2420      C2421   1.408       .  A
C2420      H2425   1.083       .  S
C2421      C2422   1.415       .  A
C2422      N2423   1.432   1_455  S
N2423      H2427   1.046       .  S
N2423      H2428   1.046   1_655  S
N2426      H2429   1.042       .  S
N2426      H2430   1.046       .  S
C2431      C2432   1.403       .  A
C2431      C2436   1.403       .  A
C2431      H2438   1.084       .  S
C2432      C2433   1.412       .  A
C2433      C2434   1.408       .  A
C2433      N2440   1.438       .  S
C2434      C2435   1.407       .  A
C2434      H2439   1.083       .  S
C2435      C2436   1.420       .  A
C2436      N2437   1.432       .  S
N2437      H2441   1.044       .  S
N2437      H2442   1.045       .  S
N2440      H2443   1.046       .  S
N2440      H2444   1.045       .  S
C2445      C2446   1.410       .  A
C2445      C2450   1.408       .  A
C2445      H2452   1.083       .  S
C2446      C2447   1.415       .  A
C2447      C2448   1.404       .  A
C2447      N2454   1.432       .  S
C2448      C2449   1.400       .  A
C2448      H2453   1.084       .  S
C2449      C2450   1.408       .  A
C2450      N2451   1.438       .  S
N2451      H2455   1.046       .  S
N2451      H2456   1.045       .  S
N2454      H2457   1.046       .  S
N2454      H2458   1.046       .  S
C2459      C2460   1.409       .  A
C2459      C2464   1.404       .  A
C2459      H2466   1.083       .  S
C2460      C2461   1.418       .  A
C2461      C2462   1.403       .  A
C2461      N2468   1.432       .  S
C2462      C2463   1.399       .  A
C2462      H2467   1.084       .  S
C2463      C2464   1.415       .  A
C2464      N2465   1.439       .  S
N2465      H2469   1.046       .  S
N2465      H2470   1.043       .  S
N2468      H2471   1.045       .  S
N2468      H2472   1.046       .  S
C2473      C2474   1.409       .  A
C2473      C2478   1.405       .  A
C2473      H2480   1.083       .  S
C2474      C2475   1.418       .  A
C2475      C2476   1.404       .  A
C2475      N2482   1.431       .  S
C2476      C2477   1.399       .  A
C2476      H2481   1.084       .  S
C2477      C2478   1.407       .  A
C2478      N2479   1.438       .  S
N2479      H2483   1.046       .  S
N2479      H2484   1.045       .  S
N2482      H2485   1.046       .  S
N2482      H2486   1.046       .  S
C2487      C2488   1.409       .  A
C2487      C2492   1.403       .  A
C2487      H2494   1.083       .  S
C2488      C2489   1.417       .  A
C2489      C2490   1.402       .  A
C2489      N2496   1.432       .  S
C2490      C2491   1.399       .  A
C2490      H2495   1.084       .  S
C2491      C2492   1.415       .  A
C2492      N2493   1.439       .  S
N2493      H2497   1.046       .  S
N2493      H2498   1.043       .  S
N2496      H2499   1.045       .  S
N2496      H2500   1.046       .  S
C2501      C2502   1.398       .  A
C2501      C2506   1.404       .  A
C2501      H2508   1.084       .  S
C2502      C2503   1.412       .  A
C2503      C2504   1.400       .  A
C2503      N2510   1.438       .  S
C2504      C2505   1.410       .  A
C2504      H2509   1.083       .  S
C2505      C2506   1.419       .  A
C2506      N2507   1.436       .  S
N2507      H2511   1.046       .  S
N2507      H2512   1.046       .  S
N2510      H2513   1.044       .  S
N2510      H2514   1.046       .  S
C2515      C2516   1.399       .  A
C2515      C2520   1.403       .  A
C2515      H2522   1.084       .  S
C2516      C2517   1.416       .  A
C2517      C2518   1.404       .  A
C2517      N2524   1.439       .  S
C2518      C2519   1.408       .  A
C2518      H2523   1.083       .  S
C2519      C2520   1.417       .  A
C2520      N2521   1.430       .  S
N2521      H2525   1.046       .  S
N2521      H2526   1.046       .  S
N2524      H2527   1.043       .  S
N2524      H2528   1.046       .  S
C2529      C2530   1.407       .  A
C2529      C2534   1.402       .  A
C2529      H2536   1.083       .  S
C2530      C2531   1.415       .  A
C2531      C2532   1.403       .  A
C2531      N2538   1.430       .  S
C2532      C2533   1.401       .  A
C2532      H2537   1.084       .  S
C2533      C2534   1.415       .  A
C2534      N2535   1.438       .  S
N2535      H2539   1.046       .  S
N2535      H2540   1.043       .  S
N2538      H2541   1.046       .  S
N2538      H2542   1.045       .  S
C2543      C2544   1.410       .  A
C2543      C2548   1.405       .  A
C2543      H2550   1.083       .  S
C2544      C2545   1.417       .  A
C2545      C2546   1.409       .  A
C2545      N2552   1.432       .  S
C2546      C2547   1.403       .  A
C2546      H2551   1.084       .  S
C2547      C2548   1.415       .  A
C2548      N2549   1.439       .  S
N2549      H2553   1.045       .  S
N2549      H2554   1.043       .  S
N2552      H2555   1.046       .  S
N2552      H2556   1.045       .  S
C2557      C2558   1.409       .  A
C2557      C2562   1.399       .  A
C2557      H2564   1.084       .  S
C2558      C2559   1.412       .  A
C2559      C2560   1.399       .  A
C2559      N2566   1.432       .  S
C2560      C2561   1.400       .  A
C2560      H2565   1.084       .  S
C2561      C2562   1.412       .  A
C2562      N2563   1.439       .  S
N2563      H2567   1.046       .  S
N2563      H2568   1.043       .  S
N2566      H2569   1.045       .  S
N2566      H2570   1.046       .  S
C2571      C2572   1.409       .  A
C2571      C2576   1.401       .  A
C2571      H2578   1.083       .  S
C2572      C2573   1.422       .  A
C2573      C2574   1.397       .  A
C2573      N2580   1.432       .  S
C2574      C2575   1.399       .  A
C2574      H2579   1.084       .  S
C2575      C2576   1.413       .  A
C2576      N2577   1.439       .  S
N2577      H2581   1.043       .  S
N2577      H2582   1.046       .  S
N2580      H2583   1.044       .  S
N2580      H2584   1.045   1_655  S
C2585      C2586   1.406       .  A
C2585      C2590   1.398       .  A
C2585      H2592   1.084       .  S
C2586      C2587   1.411       .  A
C2587      C2588   1.403       .  A
C2587      N2594   1.437       .  S
C2588      C2589   1.402       .  A
C2588      H2593   1.084       .  S
C2589      C2590   1.413       .  A
C2590      N2591   1.438       .  S
N2591      H2595   1.045       .  S
N2591      H2596   1.044       .  S
N2594      H2597   1.046       .  S
N2594      H2598   1.046       .  S
C2599      C2600   1.402       .  A
C2599      C2604   1.407       .  A
C2599      H2606   1.084       .  S
C2600      C2601   1.411       .  A
C2601      C2602   1.397       .  A
C2601      N2608   1.439       .  S
C2602      C2603   1.408       .  A
C2602      H2607   1.083       .  S
C2603      C2604   1.415       .  A
C2604      N2605   1.438       .  S
N2605      H2609   1.046       .  S
N2605      H2610   1.045       .  S
N2608      H2611   1.043       .  S
N2608      H2612   1.046       .  S
C2613      C2614   1.410       .  A
C2613      C2618   1.404       .  A
C2613      H2620   1.083       .  S
C2614      C2615   1.418       .  A
C2615      C2616   1.404       .  A
C2615      N2622   1.432       .  S
C2616      C2617   1.400       .  A
C2616      H2621   1.084       .  S
C2617      C2618   1.415       .  A
C2618      N2619   1.438       .  S
N2619      H2623   1.046       .  S
N2619      H2624   1.043       .  S
N2622      H2625   1.045       .  S
N2622      H2626   1.046       .  S
C2627      C2628   1.408       .  A
C2627      C2632   1.401       .  A
C2627      H2634   1.083       .  S
C2628      C2629   1.416       .  A
C2629      C2630   1.405       .  A
C2629      N2636   1.438       .  S
C2630      C2631   1.402       .  A
C2630      H2635   1.084       .  S
C2631      C2632   1.414       .  A
C2632      N2633   1.439       .  S
N2633      H2637   1.046       .  S
N2633      H2638   1.043       .  S
N2636      H2639   1.046       .  S
N2636      H2640   1.046       .  S
C2641      C2642   1.406       .  A
C2641      C2646   1.405       .  A
C2641      H2648   1.084       .  S
C2642      C2643   1.415       .  A
C2643      C2644   1.407       .  A
C2643      N2650   1.438       .  S
C2644      C2645   1.404       .  A
C2644      H2649   1.084       .  S
C2645      C2646   1.419       .  A
C2646      N2647   1.438       .  S
N2647      H2651   1.045       .  S
N2647      H2652   1.043       .  S
N2650      H2653   1.046       .  S
N2650      H2654   1.046       .  S
C2655      C2656   1.408       .  A
C2655      C2660   1.407       .  A
C2655      H2662   1.083       .  S
C2656      C2657   1.417       .  A
C2657      C2658   1.408       .  A
C2657      N2664   1.438       .  S
C2658      C2659   1.402       .  A
C2658      H2663   1.084       .  S
C2659      C2660   1.408       .  A
C2660      N2661   1.438       .  S
N2661      H2665   1.045       .  S
N2661      H2666   1.046       .  S
N2664      H2667   1.046       .  S
N2664      H2668   1.046       .  S
C2669      C2670   1.407       .  A
C2669      C2674   1.405       .  A
C2669      H2676   1.084       .  S
C2670      C2671   1.418       .  A
C2671      C2672   1.408       .  A
C2671      N2678   1.438       .  S
C2672      C2673   1.402       .  A
C2672      H2677   1.084       .  S
C2673      C2674   1.417       .  A
C2674      N2675   1.438       .  S
N2675      H2679   1.045       .  S
N2675      H2680   1.043       .  S
N2678      H2681   1.046       .  S
N2678      H2682   1.046       .  S
C2683      C2684   1.398       .  A
C2683      C2688   1.399       .  A
C2683      H2690   1.084       .  S
C2684      C2685   1.409       .  A
C2685      C2686   1.398       .  A
C2685      N2692   1.433       .  S
C2686      C2687   1.410       .  A
C2686      H2691   1.083       .  S
C2687      C2688   1.424       .  A
C2688      N2689   1.432       .  S
N2689      H2693   1.045       .  S
N2689      H2694   1.044       .  S
N2692      H2695   1.046       .  S
N2692      H2696   1.045       .  S
C2697      C2698   1.408       .  A
C2697      C2702   1.405       .  A
C2697      H2704   1.083       .  S
C2698      C2699   1.418       .  A
C2699      C2700   1.401       .  A
C2699      N2706   1.432       .  S
C2700      C2701   1.398       .  A
C2700      H2705   1.084       .  S
C2701      C2702   1.416       .  A
C2702      N2703   1.438       .  S
N2703      H2707   1.046       .  S
N2703      H2708   1.043       .  S
N2706      H2709   1.046       .  S
N2706      H2710   1.046       .  S
C2711      C2712   1.410       .  A
C2711      C2716   1.399       .  A
C2711      H2718   1.082       .  S
C2712      C2713   1.418       .  A
C2713      C2714   1.408       .  A
C2713      N2720   1.436       .  S
C2714      C2715   1.401       .  A
C2714      H2719   1.084       .  S
C2715      C2716   1.412       .  A
C2716      N2717   1.439       .  S
N2717      H2721   1.045       .  S
N2717      H2722   1.043       .  S
N2720      H2723   1.046       .  S
N2720      H2724   1.046       .  S
C2725      C2726   1.411       .  A
C2725      C2730   1.409       .  A
C2725      H2732   1.083       .  S
C2726      C2727   1.419       .  A
C2727      C2728   1.402       .  A
C2727      N2734   1.431       .  S
C2728      C2729   1.397       .  A
C2728      H2733   1.084       .  S
C2729      C2730   1.408       .  A
C2730      N2731   1.438       .  S
N2731      H2735   1.045       .  S
N2731      H2736   1.045       .  S
N2734      H2737   1.046       .  S
N2734      H2738   1.046       .  S
C2739      C2740   1.399       .  A
C2739      C2744   1.400       .  A
C2739      H2746   1.084       .  S
C2740      C2741   1.416       .  A
C2741      C2742   1.399       .  A
C2741      N2748   1.439       .  S
C2742      C2743   1.404       .  A
C2742      H2747   1.084       .  S
C2743      C2744   1.414       .  A
C2744      N2745   1.433       .  S
N2745      H2749   1.046       .  S
N2745      H2750   1.046       .  S
N2748      H2751   1.043       .  S
N2748      H2752   1.045       .  S
C2753      C2754   1.410       .  A
C2753      C2758   1.400       .  A
C2753      H2760   1.083       .  S
C2754      C2755   1.421       .  A
C2755      C2756   1.411       .  A
C2755      N2762   1.437       .  S
C2756      C2757   1.401       .  A
C2756      H2761   1.084       .  S
C2757      C2758   1.410       .  A
C2758      N2759   1.433       .  S
N2759      H2763   1.045       .  S
N2759      H2764   1.045       .  S
N2762      H2765   1.045       .  S
N2762      H2766   1.046       .  S
C2767      C2768   1.410       .  A
C2767      C2772   1.401       .  A
C2767      H2774   1.083       .  S
C2768      C2769   1.423       .  A
C2769      C2770   1.400       .  A
C2769      N2776   1.429       .  S
C2770      C2771   1.399       .  A
C2770      H2775   1.084       .  S
C2771      C2772   1.402       .  A
C2772      N2773   1.432       .  S
N2773      H2777   1.045       .  S
N2773      H2778   1.046       .  S
N2776      H2779   1.040       .  S
N2776      H2780   1.046       .  S
C2781      C2782   1.409       .  A
C2781      C2786   1.403       .  A
C2781      H2788   1.083       .  S
C2782      C2783   1.417       .  A
C2783      C2784   1.403       .  A
C2783      N2790   1.430       .  S
C2784      C2785   1.398       .  A
C2784      H2789   1.084       .  S
C2785      C2786   1.414       .  A
C2786      N2787   1.439       .  S
N2787      H2791   1.045       .  S
N2787      H2792   1.044       .  S
N2790      H2793   1.046       .  S
N2790      H2794   1.046       .  S
C2795      C2796   1.398       .  A
C2795      C2800   1.401       .  A
C2795      H2802   1.084       .  S
C2796      C2797   1.406       .  A
C2797      C2798   1.404       .  A
C2797      N2804   1.437       .  S
C2798      C2799   1.408       .  A
C2798      H2803   1.083       .  S
C2799      C2800   1.416       .  A
C2800      N2801   1.433       .  S
N2801      H2805   1.046       .  S
N2801      H2806   1.046       .  S
N2804      H2807   1.046       .  S
N2804      H2808   1.046       .  S
C2809      C2810   1.399       .  A
C2809      C2814   1.400       .  A
C2809      H2816   1.084       .  S
C2810      C2811   1.414       .  A
C2811      C2812   1.401       .  A
C2811      N2818   1.439       .  S
C2812      C2813   1.409       .  A
C2812      H2817   1.083       .  S
C2813      C2814   1.415       .  A
C2814      N2815   1.432       .  S
N2815      H2819   1.046       .  S
N2815      H2820   1.045       .  S
N2818      H2821   1.043       .  S
N2818      H2822   1.046       .  S
C2823      C2824   1.400       .  A
C2823      C2828   1.405       .  A
C2823      H2830   1.084       .  S
C2824      C2825   1.406       .  A
C2825      C2826   1.402       .  A
C2825      N2832   1.438       .  S
C2826      C2827   1.408       .  A
C2826      H2831   1.083       .  S
C2827      C2828   1.416       .  A
C2828      N2829   1.438       .  S
N2829      H2833   1.046       .  S
N2829      H2834   1.046       .  S
N2832      H2835   1.045       .  S
N2832      H2836   1.046       .  S
C2837      C2838   1.411       .  A
C2837      C2842   1.405       .  A
C2837      H2844   1.083       .  S
C2838      C2839   1.419       .  A
C2839      C2840   1.403       .  A
C2839      N2846   1.432       .  S
C2840      C2841   1.398       .  A
C2840      H2845   1.084       .  S
C2841      C2842   1.406       .  A
C2842      N2843   1.438       .  S
N2843      H2847   1.046       .  S
N2843      H2848   1.045       .  S
N2846      H2849   1.046       .  S
N2846      H2850   1.046       .  S
C2851      C2852   1.401       .  A
C2851      C2856   1.405       .  A
C2851      H2858   1.084       .  S
C2852      C2853   1.412       .  A
C2853      C2854   1.400       .  A
C2853      N2860   1.433       .  S
C2854      C2855   1.408       .  A
C2854      H2859   1.084   1_565  S
C2855      C2856   1.414       .  A
C2856      N2857   1.430       .  S
N2857      H2861   1.046       .  S
N2857      H2862   1.045       .  S
N2860      H2863   1.046       .  S
N2860      H2864   1.044       .  S
C2865      C2866   1.409       .  A
C2865      C2870   1.403       .  A
C2865      H2872   1.084       .  S
C2866      C2867   1.419       .  A
C2867      C2868   1.399       .  A
C2867      N2874   1.430       .  S
C2868      C2869   1.402       .  A
C2868      H2873   1.084       .  S
C2869      C2870   1.416       .  A
C2870      N2871   1.439       .  S
N2871      H2875   1.046       .  S
N2871      H2876   1.043       .  S
N2874      H2877   1.045       .  S
N2874      H2878   1.043       .  S
C2879      C2880   1.411       .  A
C2879      C2884   1.408       .  A
C2879      H2886   1.083       .  S
C2880      C2881   1.417       .  A
C2881      C2882   1.404       .  A
C2881      N2888   1.430       .  S
C2882      C2883   1.398       .  A
C2882      H2887   1.084       .  S
C2883      C2884   1.408       .  A
C2884      N2885   1.438       .  S
N2885      H2889   1.045       .  S
N2885      H2890   1.046       .  S
N2888      H2891   1.046       .  S
N2888      H2892   1.046       .  S
C2893      C2894   1.409       .  A
C2893      C2898   1.400       .  A
C2893      H2900   1.083       .  S
C2894      C2895   1.416       .  A
C2895      C2896   1.403       .  A
C2895      N2902   1.432       .  S
C2896      C2897   1.400       .  A
C2896      H2901   1.084       .  S
C2897      C2898   1.413       .  A
C2898      N2899   1.439       .  S
N2899      H2903   1.045       .  S
N2899      H2904   1.043       .  S
N2902      H2905   1.046       .  S
N2902      H2906   1.046       .  S
C2907      C2908   1.413       .  A
C2907      C2912   1.405       .  A
C2907      H2914   1.083       .  S
C2908      C2909   1.415       .  A
C2909      C2910   1.402       .  A
C2909      N2916   1.429       .  S
C2910      C2911   1.399       .  A
C2910      H2915   1.084       .  S
C2911      C2912   1.413       .  A
C2912      N2913   1.438       .  S
N2913      H2917   1.045       .  S
N2913      H2918   1.044       .  S
N2916      H2919   1.046       .  S
N2916      H2920   1.046   1_565  S
C2921      C2922   1.406       .  A
C2921      C2926   1.409       .  A
C2921      H2928   1.084       .  S
C2922      C2923   1.415       .  A
C2923      C2924   1.396       .  A
C2923      N2930   1.439       .  S
C2924      C2925   1.401       .  A
C2924      H2929   1.085       .  S
C2925      C2926   1.408       .  A
C2926      N2927   1.437       .  S
N2927      H2931   1.046       .  S
N2927      H2932   1.045       .  S
N2930      H2933   1.043       .  S
N2930      H2934   1.045       .  S
C2935      C2936   1.403       .  A
C2935      C2940   1.392       .  A
C2935      H2942   1.085       .  S
C2936      C2937   1.406       .  A
C2937      C2938   1.403       .  A
C2937      N2944   1.437       .  S
C2938      C2939   1.403       .  A
C2938      H2943   1.084       .  S
C2939      C2940   1.408       .  A
C2940      N2941   1.433       .  S
N2941      H2945   1.045       .  S
N2941      H2946   1.045       .  S
N2944      H2947   1.045       .  S
N2944      H2948   1.046       .  S
C2949      C2950   1.402       .  A
C2949      C2954   1.394       .  A
C2949      H2956   1.085       .  S
C2950      C2951   1.415       .  A
C2951      C2952   1.404       .  A
C2951      N2958   1.438       .  S
C2952      C2953   1.403       .  A
C2952      H2957   1.084       .  S
C2953      C2954   1.408       .  A
C2954      N2955   1.432       .  S
N2955      H2959   1.045       .  S
N2955      H2960   1.046       .  S
N2958      H2961   1.045       .  S
N2958      H2962   1.045       .  S
C2963      C2964   1.397       .  A
C2963      C2968   1.402       .  A
C2963      H2970   1.084       .  S
C2964      C2965   1.417       .  A
C2965      C2966   1.400       .  A
C2965      N2972   1.439       .  S
C2966      C2967   1.402       .  A
C2966      H2971   1.084       .  S
C2967      C2968   1.419       .  A
C2968      N2969   1.439       .  S
N2969      H2973   1.046       .  S
N2969      H2974   1.046       .  S
N2972      H2975   1.043       .  S
N2972      H2976   1.045       .  S
C2977      C2978   1.404       .  A
C2977      C2982   1.403       .  A
C2977      H2984   1.084       .  S
C2978      C2979   1.408       .  A
C2979      C2980   1.407       .  A
C2979      N2986   1.437       .  S
C2980      C2981   1.403       .  A
C2980      H2985   1.084       .  S
C2981      C2982   1.407       .  A
C2982      N2983   1.438       .  S
N2983      H2987   1.046       .  S
N2983      H2988   1.045       .  S
N2986      H2989   1.045       .  S
N2986      H2990   1.046       .  S
C2991      C2992   1.406       .  A
C2991      C2996   1.395       .  A
C2991      H2998   1.084       .  S
C2992      C2993   1.414       .  A
C2993      C2994   1.404       .  A
C2993      N3000   1.438       .  S
C2994      C2995   1.402       .  A
C2994      H2999   1.084       .  S
C2995      C2996   1.412       .  A
C2996      N2997   1.440       .  S
N2997      H3001   1.046       .  S
N2997      H3002   1.043       .  S
N3000      H3003   1.045       .  S
N3000      H3004   1.046       .  S
C3005      C3006   1.408       .  A
C3005      C3010   1.398       .  A
C3005      H3012   1.084       .  S
C3006      C3007   1.414       .  A
C3007      C3008   1.405       .  A
C3007      N3014   1.432       .  S
C3008      C3009   1.401       .  A
C3008      H3013   1.084       .  S
C3009      C3010   1.402       .  A
C3010      N3011   1.432       .  S
N3011      H3015   1.046       .  S
N3011      H3016   1.046       .  S
N3014      H3017   1.046       .  S
N3014      H3018   1.046       .  S
C3019      C3020   1.398       .  A
C3019      C3024   1.406       .  A
C3019      H3026   1.084       .  S
C3020      C3021   1.405       .  A
C3021      C3022   1.401       .  A
C3021      N3028   1.438       .  S
C3022      C3023   1.408       .  A
C3022      H3027   1.083       .  S
C3023      C3024   1.421       .  A
C3024      N3025   1.438       .  S
N3025      H3029   1.046       .  S
N3025      H3030   1.046       .  S
N3028      H3031   1.046       .  S
N3028      H3032   1.046       .  S
C3033      C3034   1.410       .  A
C3033      C3038   1.402       .  A
C3033      H3040   1.083       .  S
C3034      C3035   1.417       .  A
C3035      C3036   1.402       .  A
C3035      N3042   1.432       .  S
C3036      C3037   1.400       .  A
C3036      H3041   1.084       .  S
C3037      C3038   1.414       .  A
C3038      N3039   1.439       .  S
N3039      H3043   1.046       .  S
N3039      H3044   1.043       .  S
N3042      H3045   1.045       .  S
N3042      H3046   1.046       .  S
C3047      C3048   1.407       .  A
C3047      C3052   1.397       .  A
C3047      H3054   1.084       .  S
C3048      C3049   1.421       .  A
C3049      C3050   1.399       .  A
C3049      N3056   1.432       .  S
C3050      C3051   1.400       .  A
C3050      H3055   1.084       .  S
C3051      C3052   1.410       .  A
C3052      N3053   1.433       .  S
N3053      H3057   1.044       .  S
N3053      H3058   1.046       .  S
N3056      H3059   1.042       .  S
N3056      H3060   1.046       .  S
C3061      C3062   1.399       .  A
C3061      C3066   1.404       .  A
C3061      H3068   1.084       .  S
C3062      C3063   1.408       .  A
C3063      C3064   1.395       .  A
C3063      N3070   1.433       .  S
C3064      C3065   1.410       .  A
C3064      H3069   1.082       .  S
C3065      C3066   1.417       .  A
C3066      N3067   1.432       .  S
N3067      H3071   1.046       .  S
N3067      H3072   1.045       .  S
N3070      H3073   1.046       .  S
N3070      H3074   1.045       .  S
C3075      C3076   1.398       .  A
C3075      C3080   1.402       .  A
C3075      H3082   1.084       .  S
C3076      C3077   1.407       .  A
C3077      C3078   1.407       .  A
C3077      N3084   1.438       .  S
C3078      C3079   1.410       .  A
C3078      H3083   1.083       .  S
C3079      C3080   1.416       .  A
C3080      N3081   1.432       .  S
N3081      H3085   1.046       .  S
N3081      H3086   1.046       .  S
N3084      H3087   1.045       .  S
N3084      H3088   1.046       .  S
C3089      C3090   1.405       .  A
C3089      C3094   1.400       .  A
C3089      H3096   1.084       .  S
C3090      C3091   1.419       .  A
C3091      C3092   1.398       .  A
C3091      N3098   1.433   1_556  S
C3092      C3093   1.402       .  A
C3092      H3097   1.084       .  S
C3093      C3094   1.416       .  A
C3094      N3095   1.439       .  S
N3095      H3099   1.046       .  S
N3095      H3100   1.042       .  S
N3098      H3101   1.044       .  S
N3098      H3102   1.045       .  S
C3103      C3104   1.397       .  A
C3103      C3108   1.402       .  A
C3103      H3110   1.084       .  S
C3104      C3105   1.409       .  A
C3105      C3106   1.400       .  A
C3105      N3112   1.432       .  S
C3106      C3107   1.409       .  A
C3106      H3111   1.083       .  S
C3107      C3108   1.419       .  A
C3108      N3109   1.432       .  S
N3109      H3113   1.046       .  S
N3109      H3114   1.046       .  S
N3112      H3115   1.045       .  S
N3112      H3116   1.045       .  S
C3117      C3118   1.410       .  A
C3117      C3122   1.395       .  A
C3117      H3124   1.082       .  S
C3118      C3119   1.422       .  A
C3119      C3120   1.406       .  A
C3119      N3126   1.437       .  S
C3120      C3121   1.398       .  A
C3120      H3125   1.084       .  S
C3121      C3122   1.405       .  A
C3122      N3123   1.433       .  S
N3123      H3127   1.045       .  S
N3123      H3128   1.045       .  S
N3126      H3129   1.046       .  S
N3126      H3130   1.046       .  S
C3131      C3132   1.400       .  A
C3131      C3136   1.402       .  A
C3131      H3138   1.084       .  S
C3132      C3133   1.412       .  A
C3133      C3134   1.400       .  A
C3133      N3140   1.439       .  S
C3134      C3135   1.410       .  A
C3134      H3139   1.082       .  S
C3135      C3136   1.416       .  A
C3136      N3137   1.432       .  S
N3137      H3141   1.046       .  S
N3137      H3142   1.046       .  S
N3140      H3143   1.043       .  S
N3140      H3144   1.046       .  S
C3145      C3146   1.402       .  A
C3145      C3150   1.399       .  A
C3145      H3152   1.084       .  S
C3146      C3147   1.408       .  A
C3147      C3148   1.402       .  A
C3147      N3154   1.438       .  S
C3148      C3149   1.406       .  A
C3148      H3153   1.083       .  S
C3149      C3150   1.418       .  A
C3150      N3151   1.432       .  S
N3151      H3155   1.042       .  S
N3151      H3156   1.045       .  S
N3154      H3157   1.045       .  S
N3154      H3158   1.046       .  S
C3159      C3160   1.409       .  A
C3159      C3164   1.402       .  A
C3159      H3166   1.083       .  S
C3160      C3161   1.414       .  A
C3161      C3162   1.405       .  A
C3161      N3168   1.432       .  S
C3162      C3163   1.402       .  A
C3162      H3167   1.084       .  S
C3163      C3164   1.414       .  A
C3164      N3165   1.439       .  S
N3165      H3169   1.045       .  S
N3165      H3170   1.043       .  S
N3168      H3171   1.046       .  S
N3168      H3172   1.045       .  S
C3173      C3174   1.409       .  A
C3173      C3178   1.408       .  A
C3173      H3180   1.083       .  S
C3174      C3175   1.417       .  A
C3175      C3176   1.401       .  A
C3175      N3182   1.432       .  S
C3176      C3177   1.398       .  A
C3176      H3181   1.084       .  S
C3177      C3178   1.408       .  A
C3178      N3179   1.437       .  S
N3179      H3183   1.046       .  S
N3179      H3184   1.046       .  S
N3182      H3185   1.046       .  S
N3182      H3186   1.046       .  S
C3187      C3188   1.408       .  A
C3187      C3192   1.398       .  A
C3187      H3194   1.083       .  S
C3188      C3189   1.415       .  A
C3189      C3190   1.401       .  A
C3189      N3196   1.432       .  S
C3190      C3191   1.399       .  A
C3190      H3195   1.084       .  S
C3191      C3192   1.409       .  A
C3192      N3193   1.432       .  S
N3193      H3197   1.045       .  S
N3193      H3198   1.046       .  S
N3196      H3199   1.046       .  S
N3196      H3200   1.046       .  S
C3201      C3202   1.401       .  A
C3201      C3206   1.397       .  A
C3201      H3208   1.084       .  S
C3202      C3203   1.411       .  A
C3203      C3204   1.396       .  A
C3203      N3210   1.432       .  S
C3204      C3205   1.401       .  A
C3204      H3209   1.084       .  S
C3205      C3206   1.412       .  A
C3206      N3207   1.433       .  S
N3207      H3211   1.045       .  S
N3207      H3212   1.046       .  S
N3210      H3213   1.045       .  S
N3210      H3214   1.045       .  S
C3215      C3216   1.400       .  A
C3215      C3220   1.403       .  A
C3215      H3222   1.084       .  S
C3216      C3217   1.419       .  A
C3217      C3218   1.399       .  A
C3217      N3224   1.441       .  S
C3218      C3219   1.400       .  A
C3218      H3223   1.084       .  S
C3219      C3220   1.419       .  A
C3220      N3221   1.439       .  S
N3221      H3225   1.046       .  S
N3221      H3226   1.043       .  S
N3224      H3227   1.043       .  S
N3224      H3228   1.046       .  S
C3229      C3230   1.409       .  A
C3229      C3234   1.407       .  A
C3229      H3236   1.083       .  S
C3230      C3231   1.419       .  A
C3231      C3232   1.405       .  A
C3231      N3238   1.432       .  S
C3232      C3233   1.399       .  A
C3232      H3237   1.084       .  S
C3233      C3234   1.408       .  A
C3234      N3235   1.438       .  S
N3235      H3239   1.046       .  S
N3235      H3240   1.045       .  S
N3238      H3241   1.046       .  S
N3238      H3242   1.046       .  S
C3243      C3244   1.402       .  A
C3243      C3248   1.412       .  A
C3243      H3250   1.084       .  S
C3244      C3245   1.407       .  A
C3245      C3246   1.398       .  A
C3245      N3252   1.433       .  S
C3246      C3247   1.412       .  A
C3246      H3251   1.083       .  S
C3247      C3248   1.421       .  A
C3248      N3249   1.435       .  S
N3249      H3253   1.046       .  S
N3249      H3254   1.045       .  S
N3252      H3255   1.045       .  S
N3252      H3256   1.046       .  S
C3257      C3258   1.409       .  A
C3257      C3262   1.401       .  A
C3257      H3264   1.083       .  S
C3258      C3259   1.415       .  A
C3259      C3260   1.406       .  A
C3259      N3266   1.430       .  S
C3260      C3261   1.402       .  A
C3260      H3265   1.084       .  S
C3261      C3262   1.412       .  A
C3262      N3263   1.433       .  S
N3263      H3267   1.044       .  S
N3263      H3268   1.046       .  S
N3266      H3269   1.045       .  S
N3266      H3270   1.046       .  S
C3271      C3272   1.410       .  A
C3271      C3276   1.401       .  A
C3271      H3278   1.083       .  S
C3272      C3273   1.422       .  A
C3273      C3274   1.397       .  A
C3273      N3280   1.430       .  S
C3274      C3275   1.398       .  A
C3274      H3279   1.084       .  S
C3275      C3276   1.409       .  A
C3276      N3277   1.432       .  S
N3277      H3281   1.044       .  S
N3277      H3282   1.046       .  S
N3280      H3283   1.044       .  S
N3280      H3284   1.045       .  S
C3285      C3286   1.408       .  A
C3285      C3290   1.402       .  A
C3285      H3292   1.083       .  S
C3286      C3287   1.415       .  A
C3287      C3288   1.405       .  A
C3287      N3294   1.432       .  S
C3288      C3289   1.401       .  A
C3288      H3293   1.084       .  S
C3289      C3290   1.405       .  A
C3290      N3291   1.432       .  S
N3291      H3295   1.045       .  S
N3291      H3296   1.046       .  S
N3294      H3297   1.046       .  S
N3294      H3298   1.046       .  S
C3299      C3300   1.402       .  A
C3299      C3304   1.403       .  A
C3299      H3306   1.084       .  S
C3300      C3301   1.410       .  A
C3301      C3302   1.407       .  A
C3301      N3308   1.437       .  S
C3302      C3303   1.407       .  A
C3302      H3307   1.083       .  S
C3303      C3304   1.414       .  A
C3304      N3305   1.436       .  S
N3305      H3309   1.046       .  S
N3305      H3310   1.046       .  S
N3308      H3311   1.045       .  S
N3308      H3312   1.046       .  S
C3313      C3314   1.412       .  A
C3313      C3318   1.404       .  A
C3313      H3320   1.083       .  S
C3314      C3315   1.419       .  A
C3315      C3316   1.406       .  A
C3315      N3322   1.432       .  S
C3316      C3317   1.400       .  A
C3316      H3321   1.084       .  S
C3317      C3318   1.411       .  A
C3318      N3319   1.433       .  S
N3319      H3323   1.045       .  S
N3319      H3324   1.046       .  S
N3322      H3325   1.045       .  S
N3322      H3326   1.046       .  S
C3327      C3328   1.411       .  A
C3327      C3332   1.404       .  A
C3327      H3334   1.083       .  S
C3328      C3329   1.417       .  A
C3329      C3330   1.406       .  A
C3329      N3336   1.432       .  S
C3330      C3331   1.401       .  A
C3330      H3335   1.084       .  S
C3331      C3332   1.415       .  A
C3332      N3333   1.439       .  S
N3333      H3337   1.045       .  S
N3333      H3338   1.043       .  S
N3336      H3339   1.046       .  S
N3336      H3340   1.046       .  S
C3341      C3342   1.401       .  A
C3341      C3346   1.411       .  A
C3341      H3348   1.084       .  S
C3342      C3343   1.410       .  A
C3343      C3344   1.402       .  A
C3343      N3350   1.432       .  S
C3344      C3345   1.411       .  A
C3344      H3349   1.083       .  S
C3345      C3346   1.423       .  A
C3346      N3347   1.438       .  S
N3347      H3351   1.046       .  S
N3347      H3352   1.046       .  S
N3350      H3353   1.045       .  S
N3350      H3354   1.045       .  S
C3355      C3356   1.408       .  A
C3355      C3360   1.403       .  A
C3355      H3362   1.083       .  S
C3356      C3357   1.422       .  A
C3357      C3358   1.406       .  A
C3357      N3364   1.438       .  S
C3358      C3359   1.398       .  A
C3358      H3363   1.084       .  S
C3359      C3360   1.412       .  A
C3360      N3361   1.432       .  S
N3361      H3365   1.045       .  S
N3361      H3366   1.046       .  S
N3364      H3367   1.046       .  S
N3364      H3368   1.046       .  S
C3369      C3370   1.408       .  A
C3369      C3374   1.397       .  A
C3369      H3376   1.084       .  S
C3370      C3371   1.417       .  A
C3371      C3372   1.407       .  A
C3371      N3378   1.437       .  S
C3372      C3373   1.401       .  A
C3372      H3377   1.084       .  S
C3373      C3374   1.410       .  A
C3374      N3375   1.433       .  S
N3375      H3379   1.044       .  S
N3375      H3380   1.046       .  S
N3378      H3381   1.046       .  S
N3378      H3382   1.045       .  S
C3383      C3384   1.402       .  A
C3383      C3388   1.405       .  A
C3383      H3390   1.084       .  S
C3384      C3385   1.414       .  A
C3385      C3386   1.403       .  A
C3385      N3392   1.439       .  S
C3386      C3387   1.410       .  A
C3386      H3391   1.083       .  S
C3387      C3388   1.413       .  A
C3388      N3389   1.432       .  S
N3389      H3393   1.045       .  S
N3389      H3394   1.046       .  S
N3392      H3395   1.043       .  S
N3392      H3396   1.045       .  S
C3397      C3398   1.401       .  A
C3397      C3402   1.393       .  A
C3397      H3404   1.084       .  S
C3398      C3399   1.409       .  A
C3399      C3400   1.395       .  A
C3399      N3406   1.433       .  S
C3400      C3401   1.401       .  A
C3400      H3405   1.084       .  S
C3401      C3402   1.409       .  A
C3402      N3403   1.433       .  S
N3403      H3407   1.046       .  S
N3403      H3408   1.045       .  S
N3406      H3409   1.045       .  S
N3406      H3410   1.046       .  S
C3411      C3412   1.403       .  A
C3411      C3416   1.399       .  A
C3411      H3418   1.084       .  S
C3412      C3413   1.407       .  A
C3413      C3414   1.403       .  A
C3413      N3420   1.438       .  S
C3414      C3415   1.404       .  A
C3414      H3419   1.084       .  S
C3415      C3416   1.406       .  A
C3416      N3417   1.437       .  S
N3417      H3421   1.046       .  S
N3417      H3422   1.046       .  S
N3420      H3423   1.046       .  S
N3420      H3424   1.046       .  S
C3425      C3426   1.399       .  A
C3425      C3430   1.403       .  A
C3425      H3432   1.084       .  S
C3426      C3427   1.406       .  A
C3427      C3428   1.398       .  A
C3427      N3434   1.432       .  S
C3428      C3429   1.399       .  A
C3428      H3433   1.084       .  S
C3429      C3430   1.409       .  A
C3430      N3431   1.437       .  S
N3431      H3435   1.046       .  S
N3431      H3436   1.045       .  S
N3434      H3437   1.045   1_554  S
N3434      H3438   1.045       .  S
C3439      C3440   1.410       .  A
C3439      C3444   1.398       .  A
C3439      H3446   1.084       .  S
C3440      C3441   1.411       .  A
C3441      C3442   1.404       .  A
C3441      N3448   1.437       .  S
C3442      C3443   1.404       .  A
C3442      H3447   1.084       .  S
C3443      C3444   1.401       .  A
C3444      N3445   1.433       .  S
N3445      H3449   1.046       .  S
N3445      H3450   1.045       .  S
N3448      H3451   1.045       .  S
N3448      H3452   1.046       .  S
C3453      C3454   1.407       .  A
C3453      C3458   1.397       .  A
C3453      H3460   1.084       .  S
C3454      C3455   1.413       .  A
C3455      C3456   1.402       .  A
C3455      N3462   1.438       .  S
C3456      C3457   1.403       .  A
C3456      H3461   1.084       .  S
C3457      C3458   1.408       .  A
C3458      N3459   1.432       .  S
N3459      H3463   1.045       .  S
N3459      H3464   1.046       .  S
N3462      H3465   1.046       .  S
N3462      H3466   1.046       .  S
C3467      C3468   1.403       .  A
C3467      C3472   1.402       .  A
C3467      H3474   1.084       .  S
C3468      C3469   1.408       .  A
C3469      C3470   1.395       .  A
C3469      N3476   1.433       .  S
C3470      C3471   1.407       .  A
C3470      H3475   1.083       .  S
C3471      C3472   1.408       .  A
C3472      N3473   1.432       .  S
N3473      H3477   1.046       .  S
N3473      H3478   1.045       .  S
N3476      H3479   1.045       .  S
N3476      H3480   1.045       .  S
C3481      C3482   1.410       .  A
C3481      C3486   1.397       .  A
C3481      H3488   1.084       .  S
C3482      C3483   1.414       .  A
C3483      C3484   1.399       .  A
C3483      N3490   1.433       .  S
C3484      C3485   1.399       .  A
C3484      H3489   1.084       .  S
C3485      C3486   1.408       .  A
C3486      N3487   1.432       .  S
N3487      H3491   1.045       .  S
N3487      H3492   1.046       .  S
N3490      H3493   1.046       .  S
N3490      H3494   1.046       .  S
C3495      C3496   1.398       .  A
C3495      C3500   1.398       .  A
C3495      H3502   1.084       .  S
C3496      C3497   1.406       .  A
C3497      C3498   1.395       .  A
C3497      N3504   1.433       .  S
C3498      C3499   1.411       .  A
C3498      H3503   1.083       .  S
C3499      C3500   1.415       .  A
C3500      N3501   1.432       .  S
N3501      H3505   1.046       .  S
N3501      H3506   1.045       .  S
N3504      H3507   1.045       .  S
N3504      H3508   1.045       .  S
C3509      C3510   1.399       .  A
C3509      C3514   1.398       .  A
C3509      H3516   1.084       .  S
C3510      C3511   1.414       .  A
C3511      C3512   1.402       .  A
C3511      N3518   1.438       .  S
C3512      C3513   1.400       .  A
C3512      H3517   1.084       .  S
C3513      C3514   1.417       .  A
C3514      N3515   1.433       .  S
N3515      H3519   1.043       .  S
N3515      H3520   1.046       .  S
N3518      H3521   1.046       .  S
N3518      H3522   1.045       .  S
C3523      C3524   1.401       .  A
C3523      C3528   1.399       .  A
C3523      H3530   1.084       .  S
C3524      C3525   1.406       .  A
C3525      C3526   1.404       .  A
C3525      N3532   1.437       .  S
C3526      C3527   1.409       .  A
C3526      H3531   1.083       .  S
C3527      C3528   1.414       .  A
C3528      N3529   1.439       .  S
N3529      H3533   1.045       .  S
N3529      H3534   1.046       .  S
N3532      H3535   1.046       .  S
N3532      H3536   1.046       .  S
C3537      C3538   1.411       .  A
C3537      C3542   1.410       .  A
C3537      H3544   1.083       .  S
C3538      C3539   1.414       .  A
C3539      C3540   1.406       .  A
C3539      N3546   1.432       .  S
C3540      C3541   1.402       .  A
C3540      H3545   1.084       .  S
C3541      C3542   1.409       .  A
C3542      N3543   1.437       .  S
N3543      H3547   1.045       .  S
N3543      H3548   1.046       .  S
N3546      H3549   1.046       .  S
N3546      H3550   1.046       .  S
C3551      C3552   1.410       .  A
C3551      C3556   1.407       .  A
C3551      H3558   1.083       .  S
C3552      C3553   1.424       .  A
C3553      C3554   1.400       .  A
C3553      N3560   1.432       .  S
C3554      C3555   1.399       .  A
C3554      H3559   1.084       .  S
C3555      C3556   1.407       .  A
C3556      N3557   1.438       .  S
N3557      H3561   1.046       .  S
N3557      H3562   1.045       .  S
N3560      H3563   1.044       .  S
N3560      H3564   1.045       .  S
C3565      C3566   1.410       .  A
C3565      C3570   1.399       .  A
C3565      H3572   1.082       .  S
C3566      C3567   1.417       .  A
C3567      C3568   1.405       .  A
C3567      N3574   1.431       .  S
C3568      C3569   1.400       .  A
C3568      H3573   1.084       .  S
C3569      C3570   1.408       .  A
C3570      N3571   1.432       .  S
N3571      H3575   1.045       .  S
N3571      H3576   1.045       .  S
N3574      H3577   1.046       .  S
N3574      H3578   1.046       .  S
C3579      C3580   1.399       .  A
C3579      C3584   1.408       .  A
C3579      H3586   1.084       .  S
C3580      C3581   1.408       .  A
C3581      C3582   1.399       .  A
C3581      N3588   1.433       .  S
C3582      C3583   1.411       .  A
C3582      H3587   1.083       .  S
C3583      C3584   1.421       .  A
C3584      N3585   1.436       .  S
N3585      H3589   1.046       .  S
N3585      H3590   1.046       .  S
N3588      H3591   1.045       .  S
N3588      H3592   1.045       .  S
C3593      C3594   1.400       .  A
C3593      C3598   1.396       .  A
C3593      H3600   1.084       .  S
C3594      C3595   1.421       .  A
C3595      C3596   1.401       .  A
C3595      N3602   1.438       .  S
C3596      C3597   1.398       .  A
C3596      H3601   1.084       .  S
C3597      C3598   1.416       .  A
C3598      N3599   1.434       .  S
N3599      H3603   1.044   1_565  S
N3599      H3604   1.045   1_565  S
N3602      H3605   1.043       .  S
N3602      H3606   1.045       .  S
C3607      C3608   1.403       .  A
C3607      C3612   1.411       .  A
C3607      H3614   1.084       .  S
C3608      C3609   1.410       .  A
C3609      C3610   1.400       .  A
C3609      N3616   1.433       .  S
C3610      C3611   1.409       .  A
C3610      H3615   1.082       .  S
C3611      C3612   1.417       .  A
C3612      N3613   1.437       .  S
N3613      H3617   1.046       .  S
N3613      H3618   1.045       .  S
N3616      H3619   1.045       .  S
N3616      H3620   1.045       .  S
C3621      C3622   1.407       .  A
C3621      C3626   1.400       .  A
C3621      H3628   1.083       .  S
C3622      C3623   1.421       .  A
C3623      C3624   1.411       .  A
C3623      N3630   1.437       .  S
C3624      C3625   1.401       .  A
C3624      H3629   1.084       .  S
C3625      C3626   1.412       .  A
C3626      N3627   1.433       .  S
N3627      H3631   1.044       .  S
N3627      H3632   1.046       .  S
N3630      H3633   1.046   1_565  S
N3630      H3634   1.046   1_565  S
C3635      C3636   1.402       .  A
C3635      C3640   1.411       .  A
C3635      H3642   1.084       .  S
C3636      C3637   1.410       .  A
C3637      C3638   1.406       .  A
C3637      N3644   1.432       .  S
C3638      C3639   1.407       .  A
C3638      H3643   1.084       .  S
C3639      C3640   1.418       .  A
C3640      N3641   1.437       .  S
N3641      H3645   1.046   1_565  S
N3641      H3646   1.046   1_565  S
N3644      H3647   1.045       .  S
N3644      H3648   1.046       .  S
C3649      C3650   1.404       .  A
C3649      C3654   1.402       .  A
C3649      H3656   1.084       .  S
C3650      C3651   1.414       .  A
C3651      C3652   1.408       .  A
C3651      N3658   1.437       .  S
C3652      C3653   1.404       .  A
C3652      H3657   1.084       .  S
C3653      C3654   1.419       .  A
C3654      N3655   1.440       .  S
N3655      H3659   1.046       .  S
N3655      H3660   1.043       .  S
N3658      H3661   1.046       .  S
N3658      H3662   1.045       .  S
C3663      C3664   1.402       .  A
C3663      C3668   1.399       .  A
C3663      H3670   1.084       .  S
C3664      C3665   1.410       .  A
C3665      C3666   1.408       .  A
C3665      N3672   1.437       .  S
C3666      C3667   1.409       .  A
C3666      H3671   1.083       .  S
C3667      C3668   1.421       .  A
C3668      N3669   1.432       .  S
N3669      H3673   1.044       .  S
N3669      H3674   1.045       .  S
N3672      H3675   1.046       .  S
N3672      H3676   1.045       .  S
C3677      C3678   1.408       .  A
C3677      C3682   1.403       .  A
C3677      H3684   1.083       .  S
C3678      C3679   1.416       .  A
C3679      C3680   1.404       .  A
C3679      N3686   1.431       .  S
C3680      C3681   1.400       .  A
C3680      H3685   1.084       .  S
C3681      C3682   1.413       .  A
C3682      N3683   1.433       .  S
N3683      H3687   1.044       .  S
N3683      H3688   1.046       .  S
N3686      H3689   1.046       .  S
N3686      H3690   1.046       .  S
C3691      C3692   1.410       .  A
C3691      C3696   1.402       .  A
C3691      H3698   1.082       .  S
C3692      C3693   1.416       .  A
C3693      C3694   1.402       .  A
C3693      N3700   1.430       .  S
C3694      C3695   1.399       .  A
C3694      H3699   1.084       .  S
C3695      C3696   1.413       .  A
C3696      N3697   1.439       .  S
N3697      H3701   1.045       .  S
N3697      H3702   1.043       .  S
N3700      H3703   1.046       .  S
N3700      H3704   1.046       .  S
C3705      C3706   1.409       .  A
C3705      C3710   1.402       .  A
C3705      H3712   1.083       .  S
C3706      C3707   1.420       .  A
C3707      C3708   1.405       .  A
C3707      N3714   1.432       .  S
C3708      C3709   1.399       .  A
C3708      H3713   1.084       .  S
C3709      C3710   1.410       .  A
C3710      N3711   1.432       .  S
N3711      H3715   1.046       .  S
N3711      H3716   1.045       .  S
N3714      H3717   1.046       .  S
N3714      H3718   1.046       .  S
C3719      C3720   1.398       .  A
C3719      C3724   1.401       .  A
C3719      H3726   1.084       .  S
C3720      C3721   1.408       .  A
C3721      C3722   1.401       .  A
C3721      N3728   1.438       .  S
C3722      C3723   1.405       .  A
C3722      H3727   1.084       .  S
C3723      C3724   1.415       .  A
C3724      N3725   1.433       .  S
N3725      H3729   1.045       .  S
N3725      H3730   1.046       .  S
N3728      H3731   1.045       .  S
N3728      H3732   1.046       .  S
C3733      C3734   1.409       .  A
C3733      C3738   1.399       .  A
C3733      H3740   1.084       .  S
C3734      C3735   1.420       .  A
C3735      C3736   1.401       .  A
C3735      N3742   1.433       .  S
C3736      C3737   1.397       .  A
C3736      H3741   1.084       .  S
C3737      C3738   1.409       .  A
C3738      N3739   1.433       .  S
N3739      H3743   1.046       .  S
N3739      H3744   1.045       .  S
N3742      H3745   1.046       .  S
N3742      H3746   1.046       .  S
C3747      C3748   1.409       .  A
C3747      C3752   1.398       .  A
C3747      H3754   1.083       .  S
C3748      C3749   1.419       .  A
C3749      C3750   1.398       .  A
C3749      N3756   1.433       .  S
C3750      C3751   1.401       .  A
C3750      H3755   1.084       .  S
C3751      C3752   1.403       .  A
C3752      N3753   1.439       .  S
N3753      H3757   1.046       .  S
N3753      H3758   1.045       .  S
N3756      H3759   1.046       .  S
N3756      H3760   1.044       .  S
C3761      C3762   1.405       .  A
C3761      C3766   1.399       .  A
C3761      H3768   1.084       .  S
C3762      C3763   1.416       .  A
C3763      C3764   1.406       .  A
C3763      N3770   1.438       .  S
C3764      C3765   1.404       .  A
C3764      H3769   1.084       .  S
C3765      C3766   1.410       .  A
C3766      N3767   1.432       .  S
N3767      H3771   1.045       .  S
N3767      H3772   1.045       .  S
N3770      H3773   1.044       .  S
N3770      H3774   1.045       .  S
C3775      C3776   1.406       .  A
C3775      C3780   1.396       .  A
C3775      H3782   1.085       .  S
C3776      C3777   1.411       .  A
C3777      C3778   1.398       .  A
C3777      N3784   1.438       .  S
C3778      C3779   1.404       .  A
C3778      H3783   1.084       .  S
C3779      C3780   1.411       .  A
C3780      N3781   1.439       .  S
N3781      H3785   1.046       .  S
N3781      H3786   1.043       .  S
N3784      H3787   1.043       .  S
N3784      H3788   1.046       .  S
C3789      C3790   1.404       .  A
C3789      C3794   1.407       .  A
C3789      H3796   1.084       .  S
C3790      C3791   1.408       .  A
C3791      C3792   1.389       .  A
C3791      N3798   1.433       .  S
C3792      C3793   1.402       .  A
C3792      H3797   1.085       .  S
C3793      C3794   1.408       .  A
C3794      N3795   1.437       .  S
N3795      H3799   1.046       .  S
N3795      H3800   1.046       .  S
N3798      H3801   1.046       .  S
N3798      H3802   1.045       .  S
C3803      C3804   1.406       .  A
C3803      C3808   1.395       .  A
C3803      H3810   1.084       .  S
C3804      C3805   1.412       .  A
C3805      C3806   1.402       .  A
C3805      N3812   1.432       .  S
C3806      C3807   1.400       .  A
C3806      H3811   1.084       .  S
C3807      C3808   1.409       .  A
C3808      N3809   1.433       .  S
N3809      H3813   1.045       .  S
N3809      H3814   1.046       .  S
N3812      H3815   1.046       .  S
N3812      H3816   1.045       .  S
C3817      C3818   1.402       .  A
C3817      C3822   1.396       .  A
C3817      H3824   1.085       .  S
C3818      C3819   1.413       .  A
C3819      C3820   1.401       .  A
C3819      N3826   1.438       .  S
C3820      C3821   1.403       .  A
C3820      H3825   1.084       .  S
C3821      C3822   1.413       .  A
C3822      N3823   1.439       .  S
N3823      H3827   1.046       .  S
N3823      H3828   1.043       .  S
N3826      H3829   1.044       .  S
N3826      H3830   1.045       .  S
C3831      C3832   1.405       .  A
C3831      C3836   1.401       .  A
C3831      H3838   1.084       .  S
C3832      C3833   1.417       .  A
C3833      C3834   1.399       .  A
C3833      N3840   1.433       .  S
C3834      C3835   1.397       .  A
C3834      H3839   1.084       .  S
C3835      C3836   1.416       .  A
C3836      N3837   1.439       .  S
N3837      H3841   1.046       .  S
N3837      H3842   1.043       .  S
N3840      H3843   1.046       .  S
N3840      H3844   1.044       .  S
C3845      C3846   1.403       .  A
C3845      C3850   1.398       .  A
C3845      H3852   1.084       .  S
C3846      C3847   1.406       .  A
C3847      C3848   1.395       .  A
C3847      N3854   1.432       .  S
C3848      C3849   1.403       .  A
C3848      H3853   1.084       .  S
C3849      C3850   1.413       .  A
C3850      N3851   1.439       .  S
N3851      H3855   1.046       .  S
N3851      H3856   1.043       .  S
N3854      H3857   1.046       .  S
N3854      H3858   1.045       .  S
C3859      C3860   1.410       .  A
C3859      C3864   1.401       .  A
C3859      H3866   1.084       .  S
C3860      C3861   1.416       .  A
C3861      C3862   1.412       .  A
C3861      N3868   1.437       .  S
C3862      C3863   1.406       .  A
C3862      H3867   1.084       .  S
C3863      C3864   1.404       .  A
C3864      N3865   1.432       .  S
N3865      H3869   1.045       .  S
N3865      H3870   1.046       .  S
N3868      H3871   1.045       .  S
N3868      H3872   1.046       .  S
C3873      C3874   1.398       .  A
C3873      C3878   1.395       .  A
C3873      H3880   1.084       .  S
C3874      C3875   1.417       .  A
C3875      C3876   1.402       .  A
C3875      N3882   1.438       .  S
C3876      C3877   1.400       .  A
C3876      H3881   1.084       .  S
C3877      C3878   1.417       .  A
C3878      N3879   1.440       .  S
N3879      H3883   1.046       .  S
N3879      H3884   1.044       .  S
N3882      H3885   1.043       .  S
N3882      H3886   1.046       .  S
C3887      C3888   1.407       .  A
C3887      C3892   1.395       .  A
C3887      H3894   1.084       .  S
C3888      C3889   1.413       .  A
C3889      C3890   1.402       .  A
C3889      N3896   1.432       .  S
C3890      C3891   1.400       .  A
C3890      H3895   1.084       .  S
C3891      C3892   1.409       .  A
C3892      N3893   1.433       .  S
N3893      H3897   1.046       .  S
N3893      H3898   1.044       .  S
N3896      H3899   1.046       .  S
N3896      H3900   1.046       .  S
C3901      C3902   1.407       .  A
C3901      C3906   1.396       .  A
C3901      H3908   1.083       .  S
C3902      C3903   1.414       .  A
C3903      C3904   1.402       .  A
C3903      N3910   1.438       .  S
C3904      C3905   1.398       .  A
C3904      H3909   1.084       .  S
C3905      C3906   1.404       .  A
C3906      N3907   1.438       .  S
N3907      H3911   1.045       .  S
N3907      H3912   1.046       .  S
N3910      H3913   1.045       .  S
N3910      H3914   1.046       .  S
C3915      C3916   1.404       .  A
C3915      C3920   1.397       .  A
C3915      H3922   1.084       .  S
C3916      C3917   1.413       .  A
C3917      C3918   1.395       .  A
C3917      N3924   1.433       .  S
C3918      C3919   1.397       .  A
C3918      H3923   1.084       .  S
C3919      C3920   1.413       .  A
C3920      N3921   1.439       .  S
N3921      H3925   1.046       .  S
N3921      H3926   1.043       .  S
N3924      H3927   1.045       .  S
N3924      H3928   1.046       .  S
C3929      C3930   1.397       .  A
C3929      C3934   1.397       .  A
C3929      H3936   1.084       .  S
C3930      C3931   1.411       .  A
C3931      C3932   1.404       .  A
C3931      N3938   1.432       .  S
C3932      C3933   1.401       .  A
C3932      H3937   1.084       .  S
C3933      C3934   1.414       .  A
C3934      N3935   1.434       .  S
N3935      H3939   1.046       .  S
N3935      H3940   1.046       .  S
N3938      H3941   1.046       .  S
N3938      H3942   1.045       .  S
C3943      C3944   1.402       .  A
C3943      C3948   1.405       .  A
C3943      H3950   1.084       .  S
C3944      C3945   1.408       .  A
C3945      C3946   1.404       .  A
C3945      N3952   1.438       .  S
C3946      C3947   1.403       .  A
C3946      H3951   1.084       .  S
C3947      C3948   1.407       .  A
C3948      N3949   1.437       .  S
N3949      H3953   1.045       .  S
N3949      H3954   1.046       .  S
N3952      H3955   1.045       .  S
N3952      H3956   1.046       .  S
C3957      C3958   1.404       .  A
C3957      C3962   1.397       .  A
C3957      H3964   1.085       .  S
C3958      C3959   1.406       .  A
C3959      C3960   1.404       .  A
C3959      N3966   1.437       .  S
C3960      C3961   1.404       .  A
C3960      H3965   1.084       .  S
C3961      C3962   1.404       .  A
C3962      N3963   1.438       .  S
N3963      H3967   1.045       .  S
N3963      H3968   1.046       .  S
N3966      H3969   1.046       .  S
N3966      H3970   1.046       .  S
C3971      C3972   1.405       .  A
C3971      C3976   1.402       .  A
C3971      H3978   1.084       .  S
C3972      C3973   1.417       .  A
C3973      C3974   1.402       .  A
C3973      N3980   1.433       .  S
C3974      C3975   1.398       .  A
C3974      H3979   1.084       .  S
C3975      C3976   1.413       .  A
C3976      N3977   1.432       .  S
N3977      H3981   1.045       .  S
N3977      H3982   1.046       .  S
N3980      H3983   1.045       .  S
N3980      H3984   1.046       .  S
C3985      C3986   1.406       .  A
C3985      C3990   1.409       .  A
C3985      H3992   1.084       .  S
C3986      C3987   1.413       .  A
C3987      C3988   1.403       .  A
C3987      N3994   1.438       .  S
C3988      C3989   1.410       .  A
C3988      H3993   1.084       .  S
C3989      C3990   1.413       .  A
C3990      N3991   1.437       .  S
N3991      H3995   1.046       .  S
N3991      H3996   1.046       .  S
N3994      H3997   1.043       .  S
N3994      H3998   1.045       .  S
C3999      C4000   1.410       .  A
C3999      C4004   1.402       .  A
C3999      H4006   1.084       .  S
C4000      C4001   1.409       .  A
C4001      C4002   1.402       .  A
C4001      N4008   1.432       .  S
C4002      C4003   1.403       .  A
C4002      H4007   1.084       .  S
C4003      C4004   1.405       .  A
C4004      N4005   1.438       .  S
N4005      H4009   1.045       .  S
N4005      H4010   1.046       .  S
N4008      H4011   1.046       .  S
N4008      H4012   1.046       .  S
C4013      C4014   1.401       .  A
C4013      C4018   1.403       .  A
C4013      H4020   1.084       .  S
C4014      C4015   1.411       .  A
C4015      C4016   1.396       .  A
C4015      N4022   1.439       .  S
C4016      C4017   1.409       .  A
C4016      H4021   1.084       .  S
C4017      C4018   1.413       .  A
C4018      N4019   1.432       .  S
N4019      H4023   1.046       .  S
N4019      H4024   1.046       .  S
N4022      H4025   1.043       .  S
N4022      H4026   1.046       .  S
C4027      C4028   1.398       .  A
C4027      C4032   1.401       .  A
C4027      H4034   1.084       .  S
C4028      C4029   1.408       .  A
C4029      C4030   1.402       .  A
C4029      N4036   1.438       .  S
C4030      C4031   1.406       .  A
C4030      H4035   1.083       .  S
C4031      C4032   1.416       .  A
C4032      N4033   1.433       .  S
N4033      H4037   1.046       .  S
N4033      H4038   1.046       .  S
N4036      H4039   1.045       .  S
N4036      H4040   1.046       .  S
C4041      C4042   1.403       .  A
C4041      C4046   1.398       .  A
C4041      H4048   1.084       .  S
C4042      C4043   1.408       .  A
C4043      C4044   1.405       .  A
C4043      N4050   1.432       .  S
C4044      C4045   1.403       .  A
C4044      H4049   1.084       .  S
C4045      C4046   1.411       .  A
C4046      N4047   1.432       .  S
N4047      H4051   1.045       .  S
N4047      H4052   1.045       .  S
N4050      H4053   1.046       .  S
N4050      H4054   1.045       .  S
C4055      C4056   1.403       .  A
C4055      C4060   1.397       .  A
C4055      H4062   1.085       .  S
C4056      C4057   1.410       .  A
C4057      C4058   1.410       .  A
C4057      N4064   1.438       .  S
C4058      C4059   1.405       .  A
C4058      H4063   1.084       .  S
C4059      C4060   1.410       .  A
C4060      N4061   1.432       .  S
N4061      H4065   1.045       .  S
N4061      H4066   1.045       .  S
N4064      H4067   1.046       .  S
N4064      H4068   1.046       .  S
C4069      C4070   1.407       .  A
C4069      C4074   1.399       .  A
C4069      H4076   1.084       .  S
C4070      C4071   1.419       .  A
C4071      C4072   1.403       .  A
C4071      N4078   1.438       .  S
C4072      C4073   1.398       .  A
C4072      H4077   1.084       .  S
C4073      C4074   1.414       .  A
C4074      N4075   1.439       .  S
N4075      H4079   1.046       .  S
N4075      H4080   1.043       .  S
N4078      H4081   1.046       .  S
N4078      H4082   1.046       .  S
C4083      C4084   1.408       .  A
C4083      C4088   1.402       .  A
C4083      H4090   1.084       .  S
C4084      C4085   1.413       .  A
C4085      C4086   1.401       .  A
C4085      N4092   1.433       .  S
C4086      C4087   1.401       .  A
C4086      H4091   1.084       .  S
C4087      C4088   1.414       .  A
C4088      N4089   1.438       .  S
N4089      H4093   1.045       .  S
N4089      H4094   1.044       .  S
N4092      H4095   1.046       .  S
N4092      H4096   1.046       .  S
C4097      C4098   1.400       .  A
C4097      C4102   1.408       .  A
C4097      H4104   1.084       .  S
C4098      C4099   1.413       .  A
C4099      C4100   1.401       .  A
C4099      N4106   1.439       .  S
C4100      C4101   1.397       .  A
C4100      H4105   1.084       .  S
C4101      C4102   1.413       .  A
C4102      N4103   1.437       .  S
N4103      H4107   1.046       .  S
N4103      H4108   1.046       .  S
N4106      H4109   1.045       .  S
N4106      H4110   1.046       .  S
C4111      C4112   1.410       .  A
C4111      C4116   1.397       .  A
C4111      H4118   1.084       .  S
C4112      C4113   1.410       .  A
C4113      C4114   1.404       .  A
C4113      N4120   1.432       .  S
C4114      C4115   1.402       .  A
C4114      H4119   1.084       .  S
C4115      C4116   1.407       .  A
C4116      N4117   1.433       .  S
N4117      H4121   1.045       .  S
N4117      H4122   1.045       .  S
N4120      H4123   1.046       .  S
N4120      H4124   1.046       .  S
C4125      C4126   1.404       .  A
C4125      C4130   1.398       .  A
C4125      H4132   1.084       .  S
C4126      C4127   1.410       .  A
C4127      C4128   1.411       .  A
C4127      N4134   1.437       .  S
C4128      C4129   1.406       .  A
C4128      H4133   1.084       .  S
C4129      C4130   1.411       .  A
C4130      N4131   1.433       .  S
N4131      H4135   1.044       .  S
N4131      H4136   1.046       .  S
N4134      H4137   1.046       .  S
N4134      H4138   1.046       .  S
C4139      C4140   1.405       .  A
C4139      C4144   1.397       .  A
C4139      H4146   1.084       .  S
C4140      C4141   1.411       .  A
C4141      C4142   1.409       .  A
C4141      N4148   1.438       .  S
C4142      C4143   1.404       .  A
C4142      H4147   1.084       .  S
C4143      C4144   1.409       .  A
C4144      N4145   1.433       .  S
N4145      H4149   1.045       .  S
N4145      H4150   1.045       .  S
N4148      H4151   1.046       .  S
N4148      H4152   1.046       .  S
C4153      C4154   1.409       .  A
C4153      C4158   1.395       .  A
C4153      H4160   1.084       .  S
C4154      C4155   1.415       .  A
C4155      C4156   1.404       .  A
C4155      N4162   1.438       .  S
C4156      C4157   1.402       .  A
C4156      H4161   1.084       .  S
C4157      C4158   1.406       .  A
C4158      N4159   1.432       .  S
N4159      H4163   1.045       .  S
N4159      H4164   1.045       .  S
N4162      H4165   1.046       .  S
N4162      H4166   1.046       .  S
C4167      C4168   1.410       .  A
C4167      C4172   1.390       .  A
C4167      H4174   1.084       .  S
C4168      C4169   1.412       .  A
C4169      C4170   1.401       .  A
C4169      N4176   1.438       .  S
C4170      C4171   1.402       .  A
C4170      H4175   1.084       .  S
C4171      C4172   1.404       .  A
C4172      N4173   1.433       .  S
N4173      H4177   1.044       .  S
N4173      H4178   1.046       .  S
N4176      H4179   1.046       .  S
N4176      H4180   1.046       .  S
C4181      C4182   1.405       .  A
C4181      C4186   1.396       .  A
C4181      H4188   1.084       .  S
C4182      C4183   1.409       .  A
C4183      C4184   1.409       .  A
C4183      N4190   1.437       .  S
C4184      C4185   1.407       .  A
C4184      H4189   1.084       .  S
C4185      C4186   1.406       .  A
C4186      N4187   1.439       .  S
N4187      H4191   1.045       .  S
N4187      H4192   1.046       .  S
N4190      H4193   1.046       .  S
N4190      H4194   1.046       .  S
C4195      C4196   1.405       .  A
C4195      C4200   1.395       .  A
C4195      H4202   1.085       .  S
C4196      C4197   1.407       .  A
C4197      C4198   1.408       .  A
C4197      N4204   1.437       .  S
C4198      C4199   1.408       .  A
C4198      H4203   1.084       .  S
C4199      C4200   1.403       .  A
C4200      N4201   1.432       .  S
N4201      H4205   1.046       .  S
N4201      H4206   1.045       .  S
N4204      H4207   1.045       .  S
N4204      H4208   1.046       .  S
C4209      C4210   1.399       .  A
C4209      C4214   1.405       .  A
C4209      H4216   1.084       .  S
C4210      C4211   1.414       .  A
C4211      C4212   1.395       .  A
C4211      N4218   1.440       .  S
C4212      C4213   1.404       .  A
C4212      H4217   1.084       .  S
C4213      C4214   1.418       .  A
C4214      N4215   1.438       .  S
N4215      H4219   1.046       .  S
N4215      H4220   1.045       .  S
N4218      H4221   1.042       .  S
N4218      H4222   1.046       .  S
C4223      C4224   1.407       .  A
C4223      C4228   1.396       .  A
C4223      H4230   1.084       .  S
C4224      C4225   1.417       .  A
C4225      C4226   1.402       .  A
C4225      N4232   1.433       .  S
C4226      C4227   1.398       .  A
C4226      H4231   1.084       .  S
C4227      C4228   1.409       .  A
C4228      N4229   1.433       .  S
N4229      H4233   1.045       .  S
N4229      H4234   1.045       .  S
N4232      H4235   1.046       .  S
N4232      H4236   1.046       .  S
C4237      C4238   1.403       .  A
C4237      C4242   1.407       .  A
C4237      H4244   1.084       .  S
C4238      C4239   1.408       .  A
C4239      C4240   1.395       .  A
C4239      N4246   1.433       .  S
C4240      C4241   1.404       .  A
C4240      H4245   1.084       .  S
C4241      C4242   1.408       .  A
C4242      N4243   1.437       .  S
N4243      H4247   1.045       .  S
N4243      H4248   1.046       .  S
N4246      H4249   1.045       .  S
N4246      H4250   1.046       .  S
C4251      C4252   1.401       .  A
C4251      C4256   1.400       .  A
C4251      H4258   1.084       .  S
C4252      C4253   1.413       .  A
C4253      C4254   1.398       .  A
C4253      N4260   1.439       .  S
C4254      C4255   1.404       .  A
C4254      H4259   1.085       .  S
C4255      C4256   1.416       .  A
C4256      N4257   1.439       .  S
N4257      H4261   1.046       .  S
N4257      H4262   1.042       .  S
N4260      H4263   1.043       .  S
N4260      H4264   1.046       .  S
C4265      C4266   1.405       .  A
C4265      C4270   1.401       .  A
C4265      H4272   1.084       .  S
C4266      C4267   1.408       .  A
C4267      C4268   1.406       .  A
C4267      N4274   1.437       .  S
C4268      C4269   1.405       .  A
C4268      H4273   1.084       .  S
C4269      C4270   1.407       .  A
C4270      N4271   1.438       .  S
N4271      H4275   1.046       .  S
N4271      H4276   1.046       .  S
N4274      H4277   1.046       .  S
N4274      H4278   1.046       .  S
C4279      C4280   1.412       .  A
C4279      C4284   1.400       .  A
C4279      H4286   1.084       .  S
C4280      C4281   1.412       .  A
C4281      C4282   1.402       .  A
C4281      N4288   1.438       .  S
C4282      C4283   1.404       .  A
C4282      H4287   1.084       .  S
C4283      C4284   1.410       .  A
C4284      N4285   1.439       .  S
N4285      H4289   1.046       .  S
N4285      H4290   1.044       .  S
N4288      H4291   1.046       .  S
N4288      H4292   1.046       .  S
C4293      C4294   1.405       .  A
C4293      C4298   1.392       .  A
C4293      H4300   1.084       .  S
C4294      C4295   1.414       .  A
C4295      C4296   1.402       .  A
C4295      N4302   1.432       .  S
C4296      C4297   1.399       .  A
C4296      H4301   1.084       .  S
C4297      C4298   1.408       .  A
C4298      N4299   1.433       .  S
N4299      H4303   1.045       .  S
N4299      H4304   1.045       .  S
N4302      H4305   1.045       .  S
N4302      H4306   1.046       .  S
C4307      C4308   1.397       .  A
C4307      C4312   1.402       .  A
C4307      H4314   1.084       .  S
C4308      C4309   1.410       .  A
C4309      C4310   1.393       .  A
C4309      N4316   1.433       .  S
C4310      C4311   1.404       .  A
C4310      H4315   1.084       .  S
C4311      C4312   1.419       .  A
C4312      N4313   1.433       .  S
N4313      H4317   1.046       .  S
N4313      H4318   1.046       .  S
N4316      H4319   1.045       .  S
N4316      H4320   1.046       .  S
C4321      C4322   1.402       .  A
C4321      C4326   1.404       .  A
C4321      H4328   1.084       .  S
C4322      C4323   1.417       .  A
C4323      C4324   1.404       .  A
C4323      N4330   1.439       .  S
C4324      C4325   1.401       .  A
C4324      H4329   1.084       .  S
C4325      C4326   1.409       .  A
C4326      N4327   1.438       .  S
N4327      H4331   1.046       .  S
N4327      H4332   1.045       .  S
N4330      H4333   1.043       .  S
N4330      H4334   1.046       .  S
C4335      C4336   1.406       .  A
C4335      C4340   1.407       .  A
C4335      H4342   1.084       .  S
C4336      C4337   1.414       .  A
C4337      C4338   1.398       .  A
C4337      N4344   1.439       .  S
C4338      C4339   1.403       .  A
C4338      H4343   1.084       .  S
C4339      C4340   1.406       .  A
C4340      N4341   1.437       .  S
N4341      H4345   1.046       .  S
N4341      H4346   1.046       .  S
N4344      H4347   1.043       .  S
N4344      H4348   1.045       .  S
C4349      C4350   1.408       .  A
C4349      C4354   1.396       .  A
C4349      H4356   1.084       .  S
C4350      C4351   1.411       .  A
C4351      C4352   1.402       .  A
C4351      N4358   1.438       .  S
C4352      C4353   1.402       .  A
C4352      H4357   1.084       .  S
C4353      C4354   1.407       .  A
C4354      N4355   1.432       .  S
N4355      H4359   1.045       .  S
N4355      H4360   1.046       .  S
N4358      H4361   1.045       .  S
N4358      H4362   1.046       .  S
C4363      C4364   1.402       .  A
C4363      C4368   1.407       .  A
C4363      H4370   1.084       .  S
C4364      C4365   1.411       .  A
C4365      C4366   1.401       .  A
C4365      N4372   1.438       .  S
C4366      C4367   1.399       .  A
C4366      H4371   1.084       .  S
C4367      C4368   1.410       .  A
C4368      N4369   1.437       .  S
N4369      H4373   1.046       .  S
N4369      H4374   1.046       .  S
N4372      H4375   1.046       .  S
N4372      H4376   1.046       .  S
C4377      C4378   1.405       .  A
C4377      C4382   1.406       .  A
C4377      H4384   1.084       .  S
C4378      C4379   1.410       .  A
C4379      C4380   1.393       .  A
C4379      N4386   1.433       .  S
C4380      C4381   1.403       .  A
C4380      H4385   1.084       .  S
C4381      C4382   1.409       .  A
C4382      N4383   1.438       .  S
N4383      H4387   1.045       .  S
N4383      H4388   1.046       .  S
N4386      H4389   1.045       .  S
N4386      H4390   1.044       .  S
C4391      C4392   1.401       .  A
C4391      C4396   1.405       .  A
C4391      H4398   1.084       .  S
C4392      C4393   1.413       .  A
C4393      C4394   1.401       .  A
C4393      N4400   1.439       .  S
C4394      C4395   1.410       .  A
C4394      H4399   1.083       .  S
C4395      C4396   1.415       .  A
C4396      N4397   1.432       .  S
N4397      H4401   1.046       .  S
N4397      H4402   1.046       .  S
N4400      H4403   1.043       .  S
N4400      H4404   1.046       .  S
C4405      C4406   1.404       .  A
C4405      C4410   1.396       .  A
C4405      H4412   1.080       .  S
C4406      C4407   1.433       .  A
C4407      C4408   1.404       .  A
C4407      N4414   1.437       .  S
C4408      C4409   1.397       .  A
C4408      H4413   1.083       .  S
C4409      C4410   1.413       .  A
C4410      N4411   1.435   1_565  S
N4411      H4415   1.046       .  S
N4411      H4416   1.046       .  S
N4414      H4417   1.044       .  S
N4414      H4418   1.045       .  S
C4419      C4420   1.399       .  A
C4419      C4424   1.404       .  A
C4419      H4426   1.084       .  S
C4420      C4421   1.408       .  A
C4421      C4422   1.404       .  A
C4421      N4428   1.438       .  S
C4422      C4423   1.407       .  A
C4422      H4427   1.083       .  S
C4423      C4424   1.418       .  A
C4424      N4425   1.433       .  S
N4425      H4429   1.045       .  S
N4425      H4430   1.046       .  S
N4428      H4431   1.046       .  S
N4428      H4432   1.046       .  S
C4433      C4434   1.405       .  A
C4433      C4438   1.399       .  A
C4433      H4440   1.084       .  S
C4434      C4435   1.411       .  A
C4435      C4436   1.406       .  A
C4435      N4442   1.438       .  S
C4436      C4437   1.403       .  A
C4436      H4441   1.084       .  S
C4437      C4438   1.406       .  A
C4438      N4439   1.438       .  S
N4439      H4443   1.046       .  S
N4439      H4444   1.045       .  S
N4442      H4445   1.046       .  S
N4442      H4446   1.046       .  S
C4447      C4448   1.400       .  A
C4447      C4452   1.397       .  A
C4447      H4454   1.084       .  S
C4448      C4449   1.416       .  A
C4449      C4450   1.401       .  A
C4449      N4456   1.439       .  S
C4450      C4451   1.401       .  A
C4450      H4455   1.084       .  S
C4451      C4452   1.416       .  A
C4452      N4453   1.439       .  S
N4453      H4457   1.046       .  S
N4453      H4458   1.044       .  S
N4456      H4459   1.043       .  S
N4456      H4460   1.046       .  S
C4461      C4462   1.404       .  A
C4461      C4466   1.405       .  A
C4461      H4468   1.084       .  S
C4462      C4463   1.414       .  A
C4463      C4464   1.398       .  A
C4463      N4470   1.439       .  S
C4464      C4465   1.405       .  A
C4464      H4469   1.084       .  S
C4465      C4466   1.411       .  A
C4466      N4467   1.438       .  S
N4467      H4471   1.045       .  S
N4467      H4472   1.046       .  S
N4470      H4473   1.043       .  S
N4470      H4474   1.046       .  S
C4475      C4476   1.401       .  A
C4475      C4480   1.397       .  A
C4475      H4482   1.084       .  S
C4476      C4477   1.412       .  A
C4477      C4478   1.396       .  A
C4477      N4484   1.439       .  S
C4478      C4479   1.403       .  A
C4478      H4483   1.085       .  S
C4479      C4480   1.413       .  A
C4480      N4481   1.439       .  S
N4481      H4485   1.046       .  S
N4481      H4486   1.043       .  S
N4484      H4487   1.043       .  S
N4484      H4488   1.046       .  S
C4489      C4490   1.402       .  A
C4489      C4494   1.401       .  A
C4489      H4496   1.084       .  S
C4490      C4491   1.415       .  A
C4491      C4492   1.395       .  A
C4491      N4498   1.434       .  S
C4492      C4493   1.398       .  A
C4492      H4497   1.084       .  S
C4493      C4494   1.414       .  A
C4494      N4495   1.433       .  S
N4495      H4499   1.045       .  S
N4495      H4500   1.046       .  S
N4498      H4501   1.046       .  S
N4498      H4502   1.045   1_565  S
C4503      C4504   1.406       .  A
C4503      C4508   1.405       .  A
C4503      H4510   1.084       .  S
C4504      C4505   1.424       .  A
C4505      C4506   1.394       .  A
C4505      N4512   1.433       .  S
C4506      C4507   1.395       .  A
C4506      H4511   1.084       .  S
C4507      C4508   1.407       .  A
C4508      N4509   1.437       .  S
N4509      H4513   1.046       .  S
N4509      H4514   1.045       .  S
N4512      H4515   1.045       .  S
N4512      H4516   1.045       .  S
C4517      C4518   1.399       .  A
C4517      C4522   1.403       .  A
C4517      H4524   1.084       .  S
C4518      C4519   1.410       .  A
C4519      C4520   1.399       .  A
C4519      N4526   1.433       .  S
C4520      C4521   1.407       .  A
C4520      H4525   1.084       .  S
C4521      C4522   1.418       .  A
C4522      N4523   1.433       .  S
N4523      H4527   1.046       .  S
N4523      H4528   1.046       .  S
N4526      H4529   1.045       .  S
N4526      H4530   1.045       .  S
C4531      C4532   1.399       .  A
C4531      C4536   1.401       .  A
C4531      H4538   1.084       .  S
C4532      C4533   1.415       .  A
C4533      C4534   1.409       .  A
C4533      N4540   1.438       .  S
C4534      C4535   1.400       .  A
C4534      H4539   1.084       .  S
C4535      C4536   1.416       .  A
C4536      N4537   1.439       .  S
N4537      H4541   1.046       .  S
N4537      H4542   1.046       .  S
N4540      H4543   1.046       .  S
N4540      H4544   1.045       .  S
C4545      C4546   1.407       .  A
C4545      C4550   1.405       .  A
C4545      H4552   1.083       .  S
C4546      C4547   1.414       .  A
C4547      C4548   1.404       .  A
C4547      N4554   1.432       .  S
C4548      C4549   1.401       .  A
C4548      H4553   1.084       .  S
C4549      C4550   1.408       .  A
C4550      N4551   1.438       .  S
N4551      H4555   1.046       .  S
N4551      H4556   1.045       .  S
N4554      H4557   1.046       .  S
N4554      H4558   1.046       .  S
C4559      C4560   1.408   1_455  A
C4559      C4564   1.402       .  A
C4559      H4566   1.084       .  S
C4560      C4561   1.422   1_655  A
C4561      C4562   1.400       .  A
C4561      N4568   1.432   1_455  S
C4562      C4563   1.402       .  A
C4562      H4567   1.084       .  S
C4563      C4564   1.415       .  A
C4564      N4565   1.438       .  S
N4565      H4569   1.046       .  S
N4565      H4570   1.042       .  S
N4568      H4571   1.045       .  S
N4568      H4572   1.045       .  S
C4573      C4574   1.400       .  A
C4573      C4578   1.398       .  A
C4573      H4580   1.084       .  S
C4574      C4575   1.412       .  A
C4575      C4576   1.402       .  A
C4575      N4582   1.433       .  S
C4576      C4577   1.408       .  A
C4576      H4581   1.084       .  S
C4577      C4578   1.421       .  A
C4578      N4579   1.432   1_545  S
N4579      H4583   1.045       .  S
N4579      H4584   1.044       .  S
N4582      H4585   1.046       .  S
N4582      H4586   1.044       .  S
C4587      C4588   1.410       .  A
C4587      C4592   1.408       .  A
C4587      H4594   1.081       .  S
C4588      C4589   1.417       .  A
C4589      C4590   1.404       .  A
C4589      N4596   1.432       .  S
C4590      C4591   1.400       .  A
C4590      H4595   1.084       .  S
C4591      C4592   1.410       .  A
C4592      N4593   1.438       .  S
N4593      H4597   1.045       .  S
N4593      H4598   1.044       .  S
N4596      H4599   1.045       .  S
N4596      H4600   1.046       .  S
C4601      C4602   1.406       .  A
C4601      C4606   1.404       .  A
C4601      H4608   1.084       .  S
C4602      C4603   1.420       .  A
C4603      C4604   1.399       .  A
C4603      N4610   1.431   1_554  S
C4604      C4605   1.400       .  A
C4604      H4609   1.084       .  S
C4605      C4606   1.407       .  A
C4606      N4607   1.432       .  S
N4607      H4611   1.045       .  S
N4607      H4612   1.046       .  S
N4610      H4613   1.042       .  S
N4610      H4614   1.046       .  S
C4615      C4616   1.411       .  A
C4615      C4620   1.406       .  A
C4615      H4622   1.084       .  S
C4616      C4617   1.423       .  A
C4617      C4618   1.399       .  A
C4617      N4624   1.431   1_455  S
C4618      C4619   1.398       .  A
C4618      H4623   1.084       .  S
C4619      C4620   1.405       .  A
C4620      N4621   1.432       .  S
N4621      H4625   1.045       .  S
N4621      H4626   1.046       .  S
N4624      H4627   1.045       .  S
N4624      H4628   1.044       .  S
C4629      C4630   1.410       .  A
C4629      C4634   1.399       .  A
C4629      H4636   1.083       .  S
C4630      C4631   1.416       .  A
C4631      C4632   1.407       .  A
C4631      N4638   1.432       .  S
C4632      C4633   1.401       .  A
C4632      H4637   1.084       .  S
C4633      C4634   1.409       .  A
C4634      N4635   1.433       .  S
N4635      H4639   1.045       .  S
N4635      H4640   1.045       .  S
N4638      H4641   1.046       .  S
N4638      H4642   1.046       .  S
C4643      C4644   1.407       .  A
C4643      C4648   1.402       .  A
C4643      H4650   1.084       .  S
C4644      C4645   1.413       .  A
C4645      C4646   1.402       .  A
C4645      N4652   1.432       .  S
C4646      C4647   1.402       .  A
C4646      H4651   1.084       .  S
C4647      C4648   1.416       .  A
C4648      N4649   1.439       .  S
N4649      H4653   1.045       .  S
N4649      H4654   1.043       .  S
N4652      H4655   1.046       .  S
N4652      H4656   1.046       .  S
C4657      C4658   1.398       .  A
C4657      C4662   1.402       .  A
C4657      H4664   1.084       .  S
C4658      C4659   1.409       .  A
C4659      C4660   1.410       .  A
C4659      N4666   1.437       .  S
C4660      C4661   1.409       .  A
C4660      H4665   1.083       .  S
C4661      C4662   1.417       .  A
C4662      N4663   1.432   1_554  S
N4663      H4667   1.046   1_556  S
N4663      H4668   1.046       .  S
N4666      H4669   1.046       .  S
N4666      H4670   1.045       .  S
C4671      C4672   1.409       .  A
C4671      C4676   1.406       .  A
C4671      H4678   1.084       .  S
C4672      C4673   1.419       .  A
C4673      C4674   1.411       .  A
C4673      N4680   1.437       .  S
C4674      C4675   1.403       .  A
C4674      H4679   1.084       .  S
C4675      C4676   1.407       .  A
C4676      N4677   1.432       .  S
N4677      H4681   1.045       .  S
N4677      H4682   1.046       .  S
N4680      H4683   1.046       .  S
N4680      H4684   1.046       .  S
C4685      C4686   1.410       .  A
C4685      C4690   1.402       .  A
C4685      H4692   1.083       .  S
C4686      C4687   1.422       .  A
C4687      C4688   1.406       .  A
C4687      N4694   1.432       .  S
C4688      C4689   1.403       .  A
C4688      H4693   1.084       .  S
C4689      C4690   1.404       .  A
C4690      N4691   1.432       .  S
N4691      H4695   1.046       .  S
N4691      H4696   1.045       .  S
N4694      H4697   1.044       .  S
N4694      H4698   1.046       .  S
C4699      C4700   1.412       .  A
C4699      C4704   1.402       .  A
C4699      H4706   1.083       .  S
C4700      C4701   1.421       .  A
C4701      C4702   1.409       .  A
C4701      N4708   1.438       .  S
C4702      C4703   1.401       .  A
C4702      H4707   1.084       .  S
C4703      C4704   1.413       .  A
C4704      N4705   1.439       .  S
N4705      H4709   1.045       .  S
N4705      H4710   1.043       .  S
N4708      H4711   1.046       .  S
N4708      H4712   1.046       .  S
C4713      C4714   1.404       .  A
C4713      C4718   1.399       .  A
C4713      H4720   1.084       .  S
C4714      C4715   1.414       .  A
C4715      C4716   1.399       .  A
C4715      N4722   1.433       .  S
C4716      C4717   1.399       .  A
C4716      H4721   1.084       .  S
C4717      C4718   1.417       .  A
C4718      N4719   1.439       .  S
N4719      H4723   1.046       .  S
N4719      H4724   1.043       .  S
N4722      H4725   1.046       .  S
N4722      H4726   1.046       .  S
C4727      C4728   1.405       .  A
C4727      C4732   1.397       .  A
C4727      H4734   1.085       .  S
C4728      C4729   1.414       .  A
C4729      C4730   1.399       .  A
C4729      N4736   1.438       .  S
C4730      C4731   1.404       .  A
C4730      H4735   1.084       .  S
C4731      C4732   1.413       .  A
C4732      N4733   1.439       .  S
N4733      H4737   1.045       .  S
N4733      H4738   1.043       .  S
N4736      H4739   1.042       .  S
N4736      H4740   1.046       .  S
C4741      C4742   1.408       .  A
C4741      C4746   1.390       .  A
C4741      H4748   1.084       .  S
C4742      C4743   1.415       .  A
C4743      C4744   1.404       .  A
C4743      N4750   1.438       .  S
C4744      C4745   1.402       .  A
C4744      H4749   1.084       .  S
C4745      C4746   1.406       .  A
C4746      N4747   1.433       .  S
N4747      H4751   1.045       .  S
N4747      H4752   1.045       .  S
N4750      H4753   1.046       .  S
N4750      H4754   1.046       .  S
C4755      C4756   1.401       .  A
C4755      C4760   1.403       .  A
C4755      H4762   1.084       .  S
C4756      C4757   1.411       .  A
C4757      C4758   1.395       .  A
C4757      N4764   1.439       .  S
C4758      C4759   1.408       .  A
C4758      H4763   1.084       .  S
C4759      C4760   1.414       .  A
C4760      N4761   1.438       .  S
N4761      H4765   1.046       .  S
N4761      H4766   1.046       .  S
N4764      H4767   1.043       .  S
N4764      H4768   1.046       .  S
C4769      C4770   1.401       .  A
C4769      C4774   1.401       .  A
C4769      H4776   1.084       .  S
C4770      C4771   1.408       .  A
C4771      C4772   1.393       .  A
C4771      N4778   1.433       .  S
C4772      C4773   1.401       .  A
C4772      H4777   1.084       .  S
C4773      C4774   1.416       .  A
C4774      N4775   1.438       .  S
N4775      H4779   1.045       .  S
N4775      H4780   1.043       .  S
N4778      H4781   1.046       .  S
N4778      H4782   1.045       .  S
C4783      C4784   1.404       .  A
C4783      C4788   1.403       .  A
C4783      H4790   1.084       .  S
C4784      C4785   1.414       .  A
C4785      C4786   1.398       .  A
C4785      N4792   1.439       .  S
C4786      C4787   1.403       .  A
C4786      H4791   1.085       .  S
C4787      C4788   1.404       .  A
C4788      N4789   1.432       .  S
N4789      H4793   1.045       .  S
N4789      H4794   1.046       .  S
N4792      H4795   1.043       .  S
N4792      H4796   1.045       .  S
C4797      C4798   1.397       .  A
C4797      C4802   1.402       .  A
C4797      H4804   1.084       .  S
C4798      C4799   1.407       .  A
C4799      C4800   1.406       .  A
C4799      N4806   1.438       .  S
C4800      C4801   1.408       .  A
C4800      H4805   1.083       .  S
C4801      C4802   1.421       .  A
C4802      N4803   1.433       .  S
N4803      H4807   1.046       .  S
N4803      H4808   1.046       .  S
N4806      H4809   1.046       .  S
N4806      H4810   1.045       .  S
C4811      C4812   1.405       .  A
C4811      C4816   1.398       .  A
C4811      H4818   1.085       .  S
C4812      C4813   1.415       .  A
C4813      C4814   1.403       .  A
C4813      N4820   1.438       .  S
C4814      C4815   1.404       .  A
C4814      H4819   1.084       .  S
C4815      C4816   1.413       .  A
C4816      N4817   1.439       .  S
N4817      H4821   1.046       .  S
N4817      H4822   1.043       .  S
N4820      H4823   1.043       .  S
N4820      H4824   1.046       .  S
C4825      C4826   1.411       .  A
C4825      C4830   1.403       .  A
C4825      H4832   1.083       .  S
C4826      C4827   1.418       .  A
C4827      C4828   1.397       .  A
C4827      N4834   1.433       .  S
C4828      C4829   1.401       .  A
C4828      H4833   1.084       .  S
C4829      C4830   1.404       .  A
C4830      N4831   1.438       .  S
N4831      H4835   1.046       .  S
N4831      H4836   1.046       .  S
N4834      H4837   1.046       .  S
N4834      H4838   1.044       .  S
C4839      C4840   1.402       .  A
C4839      C4844   1.404       .  A
C4839      H4846   1.084       .  S
C4840      C4841   1.404       .  A
C4841      C4842   1.402       .  A
C4841      N4848   1.438       .  S
C4842      C4843   1.411       .  A
C4842      H4847   1.083       .  S
C4843      C4844   1.413       .  A
C4844      N4845   1.432       .  S
N4845      H4849   1.046       .  S
N4845      H4850   1.046       .  S
N4848      H4851   1.045       .  S
N4848      H4852   1.046       .  S
C4853      C4854   1.404       .  A
C4853      C4858   1.404       .  A
C4853      H4860   1.084       .  S
C4854      C4855   1.408       .  A
C4855      C4856   1.395       .  A
C4855      N4862   1.433       .  S
C4856      C4857   1.404       .  A
C4856      H4861   1.085       .  S
C4857      C4858   1.415       .  A
C4858      N4859   1.438       .  S
N4859      H4863   1.045       .  S
N4859      H4864   1.044       .  S
N4862      H4865   1.046       .  S
N4862      H4866   1.045       .  S
C4867      C4868   1.402       .  A
C4867      C4872   1.408       .  A
C4867      H4874   1.084       .  S
C4868      C4869   1.411       .  A
C4869      C4870   1.400       .  A
C4869      N4876   1.433       .  S
C4870      C4871   1.399       .  A
C4870      H4875   1.084       .  S
C4871      C4872   1.410       .  A
C4872      N4873   1.432       .  S
N4873      H4877   1.045       .  S
N4873      H4878   1.046       .  S
N4876      H4879   1.046       .  S
N4876      H4880   1.045       .  S
