geometry optimzed in LAMMPS
_audit_creation_date              2020-11-30 
_audit_creation_method            'lammps2cif' 
_symmetry_space_group_name_H-M    'P1' 
_symmetry_Int_Tables_number       1 
_symmetry_cell_setting            triclinic 
loop_ 
_symmetry_equiv_pos_as_xyz 
  x,y,z 
_cell_length_a                    65.11272534 
_cell_length_b                    65.36261468555739 
_cell_length_c                    65.34693372990878 
_cell_angle_alpha                 89.92930575777994 
_cell_angle_beta                  89.95642664587898 
_cell_angle_gamma                 89.92657891912664 
loop_ 
_atom_site_label 
_atom_site_type_symbol 
_atom_site_fract_x 
_atom_site_fract_y 
_atom_site_fract_z 
_atom_site_charge 
C1          C  0.35068231  0.64161887  0.15861631     0.86500
C2          C  0.34143319  0.62436347  0.14525640    -0.53700
C3          C  0.35564259  0.61404222  0.13384591     0.09400
C4          C  0.37767966  0.62152232  0.13702819     0.20400
C5          C  0.36702352  0.63021411  0.17157524    -0.54500
C6          C  0.38122492  0.62000823  0.16010652     0.09500
C7          C  0.36306248  0.65503816  0.14366425    -0.54000
C8          C  0.37697907  0.64440801  0.13234966     0.10100
H9          H  0.32534811  0.62014401  0.14510222     0.14600
H10         H  0.38929792  0.61317469  0.12776791     0.00300
H11         H  0.36722260  0.62975328  0.18817044     0.14900
H12         H  0.36069480  0.67139846  0.14188713     0.14700
C13         C  0.67756254  0.32535980  0.15300399     0.86500
C14         C  0.68871531  0.34218454  0.14073822    -0.53700
C15         C  0.67585587  0.35428797  0.12958110     0.09400
C16         C  0.65322255  0.34831175  0.13113611     0.20400
C17         C  0.66099181  0.33671931  0.16555763    -0.54500
C18         C  0.64835169  0.34882048  0.15407362     0.09500
C19         C  0.66502923  0.31350556  0.13672827    -0.54000
C20         C  0.65249945  0.32568519  0.12532649     0.10100
H21         H  0.70523140  0.34447345  0.14108070     0.14600
H22         H  0.64297969  0.35806192  0.12163851     0.00300
H23         H  0.65936648  0.33517698  0.18202156     0.14900
H24         H  0.66533750  0.29717929  0.13416053     0.14700
C25         C  0.68041058  0.64922587  0.15006142     0.86500
C26         C  0.66644170  0.65938790  0.13389631    -0.53700
C27         C  0.65449863  0.64588312  0.12334612     0.09400
C28         C  0.65720853  0.62365254  0.13007981     0.20400
C29         C  0.66575940  0.63666866  0.16376900    -0.54500
C30         C  0.65345487  0.62363710  0.15313926     0.09500
C31         C  0.69245735  0.63274112  0.13792878    -0.54000
C32         C  0.68014721  0.61938777  0.12770363     0.10100
H33         H  0.66619953  0.67574352  0.13095407     0.14600
H34         H  0.64718873  0.61278385  0.12167461     0.00300
H35         H  0.66492170  0.63821065  0.18028909     0.14900
H36         H  0.70895767  0.63107362  0.13729641     0.14700
C37         C  0.36116881  0.33007586  0.15353713     0.86500
C38         C  0.37498667  0.31419485  0.14267682    -0.53700
C39         C  0.39065750  0.32267736  0.13163871     0.09400
C40         C  0.39107663  0.34610324  0.13237144     0.20400
C41         C  0.37577844  0.34343286  0.16616249    -0.54500
C42         C  0.39136392  0.35171039  0.15509733     0.09500
C43         C  0.35399626  0.34419651  0.13594065    -0.54000
C44         C  0.36972726  0.35244527  0.12493229     0.10100
H45         H  0.37227123  0.29782179  0.14328706     0.14600
H46         H  0.40370485  0.35327249  0.12346610     0.00300
H47         H  0.37364032  0.34655480  0.18235242     0.14900
H48         H  0.33823165  0.34714591  0.13165371     0.14700
O49         O  0.54138832  0.50952949  0.16261368    -0.74400
O50         O  0.49946667  0.46905871  0.16326952    -0.74500
O51         O  0.49998114  0.51024361  0.16324672    -0.74500
O52         O  0.54080550  0.46829407  0.16260747    -0.74600
O53         O  0.54136543  0.46791558  0.19670313    -0.74500
O54         O  0.50025471  0.51020847  0.19731005    -0.74500
O55         O  0.49986978  0.46873434  0.19735836    -0.74400
O56         O  0.54196308  0.50962625  0.19669444    -0.74500
Ni57       Ni  0.52040709  0.48929247  0.16175953     1.25400
Ni58       Ni  0.52091146  0.48914852  0.19826773     1.25400
C59         C  0.54856197  0.51638816  0.17948814     0.87800
C60         C  0.49277972  0.46211776  0.18033861     0.87700
C61         C  0.49320664  0.51710601  0.18032084     0.87700
C62         C  0.54771975  0.46102272  0.17945116     0.87900
C63         C  0.36063653  0.32589740  0.82720221     0.86500
C64         C  0.35199155  0.34219039  0.84195127    -0.53700
C65         C  0.36676398  0.35332194  0.85173541     0.09400
C66         C  0.38872680  0.34709659  0.84608326     0.20400
C67         C  0.37520853  0.33784202  0.81277342    -0.54500
C68         C  0.38970667  0.34913942  0.82274829     0.09500
C69         C  0.37523607  0.31293403  0.84072063    -0.54000
C70         C  0.38977949  0.32416296  0.85048960     0.10100
H71         H  0.33567538  0.34491026  0.84409680     0.14600
H72         H  0.40061855  0.35600967  0.85436805     0.00300
H73         H  0.37389445  0.33766938  0.79621858     0.14900
H74         H  0.37466250  0.29655118  0.84285903     0.14700
C75         C  0.66658575  0.33677984  0.82456186     0.86500
C76         C  0.65423908  0.35424630  0.81462321    -0.53700
C77         C  0.64233781  0.36495582  0.82806364     0.09400
C78         C  0.64384117  0.35729836  0.85019701     0.20400
C79         C  0.67881857  0.34745519  0.84184897    -0.54500
C80         C  0.66674572  0.35796307  0.85519683     0.09500
C81         C  0.65058007  0.32367266  0.83602807    -0.54000
C82         C  0.63864424  0.33445553  0.84937211     0.10100
H83         H  0.65520074  0.35804251  0.79846994     0.14600
H84         H  0.63422622  0.36610313  0.86113903     0.00300
H85         H  0.69526119  0.34705709  0.84401106     0.14900
H86         H  0.64890872  0.30730968  0.83374515     0.14700
C87         C  0.67310066  0.65228827  0.83790565     0.86500
C88         C  0.66016900  0.63884780  0.82335997    -0.53700
C89         C  0.64712495  0.62594820  0.83327766     0.09400
C90         C  0.64801638  0.62750892  0.85656488     0.20400
C91         C  0.65743037  0.66310628  0.85183901    -0.54500
C92         C  0.64425483  0.65008488  0.86141781     0.09500
C93         C  0.68387777  0.63664785  0.85212894    -0.54000
C94         C  0.67056071  0.62390730  0.86197679     0.10100
H95         H  0.66137991  0.63934715  0.80679038     0.14600
H96         H  0.63723867  0.61688055  0.86436549     0.00300
H97         H  0.65672579  0.67959216  0.85376674     0.14900
H98         H  0.70024680  0.63532337  0.85455281     0.14700
C99         C  0.34734582  0.65961141  0.83953155     0.86500
C100        C  0.33894139  0.64365444  0.85496837    -0.53700
C101        C  0.35396368  0.63223219  0.86413205     0.09400
C102        C  0.37573155  0.63748457  0.85685645     0.20400
C103        C  0.36284835  0.67201841  0.85231004    -0.54500
C104        C  0.37778384  0.66038997  0.86106363     0.09500
C105        C  0.36031230  0.64688571  0.82442392    -0.54000
C106        C  0.37508339  0.63539816  0.83362137     0.10100
H107        H  0.32299635  0.64187691  0.85926009     0.14600
H108        H  0.38797577  0.62796759  0.86391248     0.00300
H109        H  0.36196037  0.68847630  0.85442374     0.14900
H110        H  0.35770307  0.64662979  0.80801127     0.14700
O111        O  0.33340227  0.46667227  0.96683889    -0.74400
O112        O  0.32850599  0.50429032  0.01184073    -0.74500
O113        O  0.32893952  0.50782227  0.97052968    -0.74500
O114        O  0.33285468  0.46303935  0.00813917    -0.74600
O115        O  0.36682617  0.46670352  0.00884522    -0.74500
O116        O  0.36304315  0.51073504  0.97083386    -0.74500
O117        O  0.36251615  0.50770802  0.01192207    -0.74400
O118        O  0.36742355  0.46983777  0.96780016    -0.74500
Ni119      Ni  0.32967552  0.48532188  0.98932022     1.25400
Ni120      Ni  0.36612051  0.48887799  0.98989798     1.25400
C121        C  0.35127229  0.46191221  0.96000574     0.87800
C122        C  0.34484193  0.51243146  0.01914699     0.87700
C123        C  0.34541885  0.51660077  0.96443250     0.87700
C124        C  0.35053811  0.45739570  0.01463383     0.87900
O125        O  0.48956552  0.65153396  0.01833441    -0.74400
O126        O  0.53032636  0.65090496  0.97659034    -0.74500
O127        O  0.53088529  0.64943890  0.01775614    -0.74500
O128        O  0.48905431  0.65303073  0.97705197    -0.74600
O129        O  0.49024045  0.68704621  0.97835113    -0.74500
O130        O  0.53298844  0.68349637  0.01841408    -0.74500
O131        O  0.53166508  0.68495354  0.97723174    -0.74400
O132        O  0.49129475  0.68551757  0.01986618    -0.74500
Ni133      Ni  0.50985916  0.65003727  0.99741466     1.25400
Ni134      Ni  0.51156768  0.68649366  0.99855240     1.25400
C135        C  0.48371775  0.66853516  0.02611504     0.87800
C136        C  0.53772642  0.66779091  0.96995552     0.87700
C137        C  0.53911343  0.66587321  0.02448611     0.87700
C138        C  0.48292571  0.67054791  0.97071555     0.87900
O139        O  0.67664959  0.46861479  0.01475831    -0.74400
O140        O  0.67698699  0.50718979  0.97113340    -0.74500
O141        O  0.67548270  0.46632019  0.97359960    -0.74500
O142        O  0.67834231  0.50970327  0.01234368    -0.74600
O143        O  0.71253109  0.50813826  0.01172766    -0.74500
O144        O  0.70963684  0.46518454  0.97234950    -0.74500
O145        O  0.71122761  0.50636248  0.97031798    -0.74400
O146        O  0.71078351  0.46693703  0.01370350    -0.74500
Ni147      Ni  0.67566129  0.48803446  0.99301568     1.25400
Ni148      Ni  0.71228737  0.48661708  0.99199685     1.25400
C149        C  0.69360800  0.46127653  0.02142838     0.87800
C150        C  0.69405704  0.51290457  0.96332529     0.87700
C151        C  0.69209962  0.45870893  0.96637598     0.87700
C152        C  0.69587037  0.51594740  0.01860521     0.87900
O153        O  0.49653780  0.28300968  0.97049514    -0.74400
O154        O  0.53699912  0.28352903  0.01346080    -0.74500
O155        O  0.49538722  0.28078342  0.01203987    -0.74500
O156        O  0.53802287  0.28550148  0.97170429    -0.74600
O157        O  0.53603740  0.31941690  0.97390199    -0.74500
O158        O  0.49262700  0.31477763  0.01296462    -0.74500
O159        O  0.53400721  0.31740313  0.01519455    -0.74400
O160        O  0.49497830  0.31703069  0.97191978    -0.74500
Ni161      Ni  0.51683433  0.28194753  0.99191287     1.25400
Ni162      Ni  0.51435890  0.31831458  0.99361223     1.25400
C163        C  0.48937075  0.30009274  0.96391807     0.87800
C164        C  0.54217117  0.30070072  0.02143617     0.87700
C165        C  0.48678709  0.29703444  0.01888837     0.87700
C166        C  0.54378524  0.30331801  0.96581542     0.87900
O167        O  0.48567740  0.47753108  0.82378888    -0.74400
O168        O  0.52546942  0.52060102  0.82617303    -0.74500
O169        O  0.48396975  0.51892235  0.82442614    -0.74500
O170        O  0.52695177  0.47943766  0.82593330    -0.74600
O171        O  0.52893929  0.47977771  0.79191427    -0.74500
O172        O  0.48541933  0.51962935  0.79038276    -0.74500
O173        O  0.52706970  0.52112714  0.79216372    -0.74400
O174        O  0.48735107  0.47787804  0.78978736    -0.74500
Ni175      Ni  0.50541198  0.49913824  0.82625359     1.25400
Ni176      Ni  0.50718991  0.49963869  0.78982174     1.25400
C177        C  0.48018678  0.47027297  0.80641737     0.87800
C178        C  0.53318698  0.52772582  0.80957772     0.87700
C179        C  0.47764733  0.52597881  0.80727877     0.87700
C180        C  0.53511311  0.47306618  0.80931895     0.87900
C181        C  0.66790906  0.15048720  0.65067078     0.86500
C182        C  0.65393247  0.13826327  0.66512419    -0.53700
C183        C  0.64106994  0.12524922  0.65531182     0.09400
C184        C  0.64318793  0.12532797  0.63204746     0.20400
C185        C  0.67900471  0.13408309  0.63757097    -0.54500
C186        C  0.66590899  0.12091630  0.62799563     0.09500
C187        C  0.65328030  0.16094960  0.63524033    -0.54000
C188        C  0.64036409  0.14765057  0.62564203     0.10100
H189        H  0.65441718  0.13954128  0.68169347     0.14600
H190        H  0.63246770  0.11466525  0.62424313     0.00300
H191        H  0.69544653  0.13309859  0.63529679     0.14900
H192        H  0.65331589  0.17723171  0.63193752     0.14700
C193        C  0.66295532  0.14613787  0.33230168     0.86500
C194        C  0.67451997  0.12908944  0.34382276    -0.53700
C195        C  0.66202151  0.11570872  0.35382457     0.09400
C196        C  0.63912407  0.12069393  0.35174079     0.20400
C197        C  0.64748422  0.13489890  0.31842781    -0.54500
C198        C  0.63504271  0.12171088  0.32876923     0.09500
C199        C  0.64947613  0.15622310  0.34916581    -0.54000
C200        C  0.63719816  0.14271048  0.35940981     0.10100
H201        H  0.69113789  0.12781287  0.34405734     0.14600
H202        H  0.62875393  0.10982007  0.35969797     0.00300
H203        H  0.64642145  0.13724542  0.30200783     0.14900
H204        H  0.64985041  0.17214769  0.35357678     0.14700
C205        C  0.34022585  0.15026368  0.65637345     0.86500
C206        C  0.35544108  0.13858566  0.67013040    -0.53700
C207        C  0.36728717  0.12489234  0.65978299     0.09400
C208        C  0.36307931  0.12400760  0.63677750     0.20400
C209        C  0.35385820  0.15991281  0.63949623    -0.54500
C210        C  0.36576183  0.14605840  0.62937233     0.09500
C211        C  0.32803184  0.13367339  0.64490177    -0.54000
C212        C  0.34000118  0.11996059  0.63466713     0.10100
H213        H  0.35700244  0.14122809  0.68646074     0.14600
H214        H  0.37299816  0.11289675  0.62852087     0.00300
H215        H  0.35383513  0.17580616  0.63492138     0.14900
H216        H  0.31136622  0.13310816  0.64460889     0.14700
C217        C  0.34064784  0.15276700  0.33119700     0.86500
C218        C  0.35937500  0.16181430  0.34283954    -0.53700
C219        C  0.37085739  0.14747793  0.35283399     0.09400
C220        C  0.36277108  0.12572277  0.35066218     0.20400
C221        C  0.35014223  0.13617726  0.31731448    -0.54500
C222        C  0.36140902  0.12191858  0.32760927     0.09500
C223        C  0.32880660  0.14089925  0.34792880    -0.54000
C224        C  0.34057130  0.12694069  0.35821205     0.10100
H225        H  0.36341315  0.17780426  0.34387970     0.14600
H226        H  0.37222813  0.11425931  0.35899033     0.00300
H227        H  0.34813387  0.13577586  0.30082105     0.14900
H228        H  0.31291834  0.14400987  0.35192140     0.14700
O229        O  0.47887348  0.18025276  0.51339527    -0.74400
O230        O  0.52363882  0.18008210  0.47493892    -0.74500
O231        O  0.48204158  0.17984549  0.47177891    -0.74500
O232        O  0.52050119  0.18039081  0.51639290    -0.74600
O233        O  0.52063908  0.14632766  0.51636357    -0.74500
O234        O  0.48218828  0.14580315  0.47246025    -0.74500
O235        O  0.52332415  0.14597605  0.47513501    -0.74400
O236        O  0.47948472  0.14618377  0.51365528    -0.74500
Ni237      Ni  0.50123472  0.18141559  0.49412158     1.25400
Ni238      Ni  0.50140454  0.14492185  0.49443038     1.25400
C239        C  0.47206614  0.16310876  0.52012790     0.87800
C240        C  0.53065212  0.16290013  0.46853372     0.87700
C241        C  0.47588678  0.16263496  0.46463323     0.87700
C242        C  0.52696521  0.16332874  0.52369134     0.87900
C243        C  0.64867088  0.82393360  0.33277566     0.86500
C244        C  0.63479542  0.81028022  0.34614392    -0.53700
C245        C  0.62070429  0.82092057  0.35725196     0.09400
C246        C  0.62157144  0.84408223  0.35422170     0.20400
C247        C  0.63344731  0.83681582  0.31983246    -0.54500
C248        C  0.61935724  0.84735765  0.33109808     0.09500
C249        C  0.65804990  0.83958509  0.34776616    -0.54000
C250        C  0.64383483  0.84995479  0.35918421     0.10100
H251        H  0.63606548  0.79372551  0.34683370     0.14600
H252        H  0.61005101  0.85257138  0.36344767     0.00300
H253        H  0.63325512  0.83781307  0.30336550     0.14900
H254        H  0.67447347  0.84158477  0.34971716     0.14700
C255        C  0.33158533  0.83602441  0.32820264     0.86500
C256        C  0.31997544  0.85035951  0.34318681    -0.53700
C257        C  0.33271026  0.86166977  0.35531167     0.09400
C258        C  0.35557083  0.85778245  0.35158520     0.20400
C259        C  0.34637295  0.85017755  0.31648342    -0.54500
C260        C  0.35885644  0.86154243  0.32869474     0.09500
C261        C  0.34546975  0.82322834  0.34256300    -0.54000
C262        C  0.35809351  0.83471940  0.35454146     0.10100
H263        H  0.30358981  0.85070860  0.34565876     0.14600
H264        H  0.36582093  0.86699061  0.36156808     0.00300
H265        H  0.34661721  0.85132559  0.29990370     0.14900
H266        H  0.34543981  0.80661859  0.34308432     0.14700
C267        C  0.33744107  0.84536054  0.66054101     0.86500
C268        C  0.35187151  0.83371583  0.64592598    -0.53700
C269        C  0.36152615  0.84597898  0.63208814     0.09400
C270        C  0.35633545  0.86876347  0.63426885     0.20400
C271        C  0.35155835  0.86162178  0.67041386    -0.54500
C272        C  0.36140326  0.87382343  0.65660075     0.09500
C273        C  0.32294678  0.85753716  0.64653824    -0.54000
C274        C  0.33289419  0.86967456  0.63288757     0.10100
H275        H  0.35420574  0.81726470  0.64637966     0.14600
H276        H  0.36417933  0.87864619  0.62284857     0.00300
H277        H  0.35424636  0.86337439  0.68663714     0.14900
H278        H  0.30631515  0.85634410  0.64708416     0.14700
C279        C  0.65102701  0.82418288  0.65258822     0.86500
C280        C  0.66164379  0.84060124  0.63938949    -0.53700
C281        C  0.64828714  0.85297314  0.62917352     0.09400
C282        C  0.62572112  0.84787877  0.63278455     0.20400
C283        C  0.63599814  0.83609919  0.66645119    -0.54500
C284        C  0.62290829  0.84851261  0.65596081     0.09500
C285        C  0.63690541  0.81272657  0.63730411    -0.54000
C286        C  0.62382979  0.82531772  0.62690018     0.10100
H287        H  0.67820089  0.84222646  0.63818586     0.14600
H288        H  0.61502118  0.85817004  0.62442783     0.00300
H289        H  0.63603881  0.83519846  0.68304764     0.14900
H290        H  0.63725822  0.79651913  0.63416168     0.14700
O291        O  0.68424113  0.96274948  0.47296398    -0.74400
O292        O  0.69121772  0.00547216  0.51248497    -0.74500
O293        O  0.68580575  0.96439145  0.51423097    -0.74500
O294        O  0.68970186  0.00391673  0.47116650    -0.74600
O295        O  0.65580412  0.00830183  0.47239771    -0.74500
O296        O  0.65188768  0.96887373  0.51510178    -0.74500
O297        O  0.65728865  0.00981614  0.51339811    -0.74400
O298        O  0.65039037  0.96736463  0.47406615    -0.74500
Ni299      Ni  0.68898087  0.98397487  0.49266449     1.25400
Ni300      Ni  0.65266368  0.98875555  0.49378255     1.25400
C301        C  0.66610380  0.95786889  0.46710114     0.87800
C302        C  0.67532694  0.01475719  0.51939598     0.87700
C303        C  0.66811613  0.95990686  0.52155117     0.87700
C304        C  0.67334861  0.01281102  0.46483011     0.87900
O305        O  0.48953792  0.02198128  0.66734440    -0.74400
O306        O  0.52475035  0.97527260  0.66642440    -0.74500
O307        O  0.48378550  0.98130631  0.66477168    -0.74500
O308        O  0.53047009  0.01577296  0.66873136    -0.74600
O309        O  0.52885329  0.01459610  0.70279712    -0.74500
O310        O  0.48219425  0.97870888  0.69868777    -0.74500
O311        O  0.52371811  0.97348533  0.70042320    -0.74400
O312        O  0.48739077  0.01971037  0.70131359    -0.74500
Ni313      Ni  0.50718201  0.99865164  0.66566149     1.25400
Ni314      Ni  0.50549035  0.99655865  0.70207363     1.25400
C315        C  0.48240990  0.02840306  0.68444107     0.87800
C316        C  0.53031714  0.96677624  0.68320904     0.87700
C317        C  0.47519395  0.97423606  0.68088357     0.87700
C318        C  0.53749950  0.02078378  0.68626561     0.87900
O319        O  0.32881971  0.97024141  0.51276603    -0.74400
O320        O  0.33366746  0.01430498  0.47475368    -0.74500
O321        O  0.33191693  0.01129796  0.51576827    -0.74500
O322        O  0.33069622  0.97326831  0.47182917    -0.74600
O323        O  0.29661494  0.97556601  0.47045567    -0.74500
O324        O  0.29786973  0.01431100  0.51477267    -0.74500
O325        O  0.29959092  0.01712456  0.47342019    -0.74400
O326        O  0.29471338  0.97298351  0.51184606    -0.74500
Ni327      Ni  0.33243652  0.99219780  0.49382516     1.25400
Ni328      Ni  0.29593318  0.99509216  0.49255241     1.25400
C329        C  0.31101917  0.96426814  0.51854468     0.87800
C330        C  0.31749921  0.02303556  0.46780915     0.87700
C331        C  0.31528433  0.01929729  0.52245545     0.87700
C332        C  0.31355351  0.96784244  0.46399265     0.87900
O333        O  0.51700731  0.96945177  0.31856488    -0.74400
O334        O  0.47646150  0.01154149  0.31821322    -0.74500
O335        O  0.47586279  0.97023197  0.31792360    -0.74500
O336        O  0.51789029  0.01077922  0.31899787    -0.74600
O337        O  0.51921466  0.01084218  0.28497059    -0.74500
O338        O  0.47550700  0.97119129  0.28378708    -0.74500
O339        O  0.47739537  0.01253550  0.28416507    -0.74400
O340        O  0.51699164  0.96899224  0.28444611    -0.74500
Ni341      Ni  0.49681287  0.99053997  0.31959309     1.25400
Ni342      Ni  0.49737288  0.99095140  0.28308069     1.25400
C343        C  0.52315976  0.96177503  0.30162720     0.87800
C344        C  0.46999312  0.01885757  0.30119748     0.87700
C345        C  0.46876294  0.96401752  0.30077543     0.87700
C346        C  0.52558767  0.01757864  0.30229059     0.87900
O347        O  0.46662662  0.79281407  0.47236898    -0.74400
O348        O  0.50696548  0.79182220  0.51499686    -0.74500
O349        O  0.46535736  0.79405355  0.51379664    -0.74500
O350        O  0.50820532  0.79070239  0.47354978    -0.74600
O351        O  0.50975462  0.82474857  0.47266565    -0.74500
O352        O  0.46714462  0.82808298  0.51251008    -0.74500
O353        O  0.50847012  0.82588195  0.51409180    -0.74400
O354        O  0.46837352  0.82685761  0.47150676    -0.74500
Ni355      Ni  0.48674619  0.79110874  0.49372528     1.25400
Ni356      Ni  0.48855381  0.82757823  0.49267067     1.25400
C357        C  0.46072207  0.81002928  0.46503126     0.87800
C358        C  0.51426085  0.80873650  0.52165898     0.87700
C359        C  0.45906131  0.81171049  0.51960654     0.87700
C360        C  0.51581035  0.80725563  0.46624190     0.87900
C361        C  0.86340899  0.32662274  0.66172411     0.86500
C362        C  0.87811839  0.31655092  0.64589496    -0.53700
C363        C  0.88914412  0.33046896  0.63467980     0.09400
C364        C  0.88482830  0.35275707  0.64046980     0.20400
C365        C  0.87744007  0.34041085  0.67470820    -0.54500
C366        C  0.88869328  0.35392856  0.66351553     0.09500
C367        C  0.85039049  0.34136202  0.64861023    -0.54000
C368        C  0.86167815  0.35510041  0.63780120     0.10100
H369        H  0.87906515  0.30034477  0.64271216     0.14600
H370        H  0.89373652  0.36414757  0.63149399     0.00300
H371        H  0.87846363  0.33945145  0.69127290     0.14900
H372        H  0.83373634  0.34087629  0.64781772     0.14700
C373        C  0.83579793  0.34425796  0.34282370     0.86500
C374        C  0.84786809  0.35905663  0.32905568    -0.53700
C375        C  0.86018376  0.37213269  0.33952530     0.09400
C376        C  0.85950771  0.36936910  0.36277001     0.20400
C377        C  0.85216936  0.33358843  0.35619157    -0.54500
C378        C  0.86479037  0.34679058  0.36628369     0.09500
C379        C  0.82420756  0.35819967  0.35812991    -0.54000
C380        C  0.83680392  0.37110242  0.36865174     0.10100
H381        H  0.84699775  0.35896793  0.31245207     0.14600
H382        H  0.86960187  0.38014734  0.37121560     0.00300
H383        H  0.85393672  0.31710396  0.35713761     0.14900
H384        H  0.80800331  0.35730534  0.36170545     0.14700
C385        C  0.82998970  0.65594228  0.35688694     0.86500
C386        C  0.84464037  0.66781816  0.37102533    -0.53700
C387        C  0.85522280  0.65581920  0.38453707     0.09400
C388        C  0.85027356  0.63292529  0.38247039     0.20400
C389        C  0.84361540  0.63956838  0.34651730    -0.54500
C390        C  0.85451101  0.62767315  0.35991847     0.09500
C391        C  0.81620532  0.64332061  0.37137941    -0.54000
C392        C  0.82691624  0.63156772  0.38473472     0.10100
H393        H  0.84640904  0.68432589  0.37036046     0.14600
H394        H  0.85865243  0.62285383  0.39327776     0.00300
H395        H  0.84494756  0.63796049  0.33005407     0.14900
H396        H  0.79958481  0.64280144  0.37098034     0.14700
C397        C  0.85402732  0.65868823  0.66780811     0.86500
C398        C  0.86681517  0.64332759  0.68068587    -0.53700
C399        C  0.87849616  0.63048918  0.66899709     0.09400
C400        C  0.87674598  0.63414963  0.64598735     0.20400
C401        C  0.87032543  0.66964354  0.65471416    -0.54500
C402        C  0.88195536  0.65678823  0.64315360     0.09500
C403        C  0.84184061  0.64517158  0.65279107    -0.54000
C404        C  0.85382764  0.63245762  0.64137712     0.10100
H405        H  0.86728029  0.64262000  0.69722906     0.14600
H406        H  0.88639553  0.62363262  0.63668821     0.00300
H407        H  0.87258251  0.68610412  0.65470412     0.14900
H408        H  0.82522245  0.64557807  0.65140172     0.14700
O409        O  0.98746002  0.69709824  0.52296727    -0.74400
O410        O  0.02529604  0.69942850  0.47819353    -0.74500
O411        O  0.98358999  0.69827192  0.48161944    -0.74500
O412        O  0.02884749  0.69797986  0.51978180    -0.74600
O413        O  0.02931885  0.66396391  0.51856373    -0.74500
O414        O  0.98491633  0.66426663  0.48050698    -0.74500
O415        O  0.02625176  0.66540722  0.47729647    -0.74400
O416        O  0.98806315  0.66303323  0.52158211    -0.74500
Ni417      Ni  0.00629366  0.69944364  0.50063397     1.25400
Ni418      Ni  0.00718682  0.66300156  0.49942010     1.25400
C419        C  0.98160872  0.67966146  0.52970829     0.87800
C420        C  0.03206824  0.68279166  0.47032305     0.87700
C421        C  0.97670959  0.68115302  0.47486658     0.87700
C422        C  0.03629663  0.68078554  0.52577662     0.87900
O423        O  0.99331113  0.51646639  0.70458496    -0.74400
O424        O  0.03441170  0.47448074  0.70049259    -0.74500
O425        O  0.03503758  0.51589860  0.70055639    -0.74500
O426        O  0.99293723  0.47497172  0.70452184    -0.74600
O427        O  0.98910997  0.47608660  0.67063339    -0.74500
O428        O  0.03201403  0.51545653  0.66662264    -0.74500
O429        O  0.03030034  0.47438362  0.66667417    -0.74400
O430        O  0.99094283  0.51724316  0.67052216    -0.74500
Ni431      Ni  0.01401761  0.49547487  0.70380669     1.25400
Ni432      Ni  0.01045704  0.49578498  0.66745328     1.25400
C433        C  0.98550033  0.52380333  0.68812965     0.87800
C434        C  0.03917804  0.46755512  0.68277142     0.87700
C435        C  0.04072360  0.52217261  0.68282914     0.87700
C436        C  0.98403307  0.46889342  0.68813993     0.87900
O437        O  0.01448083  0.48561918  0.28868511    -0.74400
O438        O  0.97146495  0.52480560  0.30028751    -0.74500
O439        O  0.01294572  0.52651999  0.29528099    -0.74500
O440        O  0.97279019  0.48383976  0.29326333    -0.74600
O441        O  0.97709894  0.47823450  0.32664758    -0.74500
O442        O  0.01682246  0.52113915  0.32869012    -0.74500
O443        O  0.97551892  0.51884560  0.33362015    -0.74400
O444        O  0.01808188  0.48042378  0.32221294    -0.74500
Ni445      Ni  0.99275891  0.50539486  0.29314446     1.25400
Ni446      Ni  0.99702833  0.49951249  0.32893465     1.25400
C447        C  0.02336606  0.47659546  0.30375658     0.87800
C448        C  0.96629416  0.52807209  0.31898748     0.87700
C449        C  0.02166943  0.53078701  0.31230354     0.87700
C450        C  0.96832734  0.47400766  0.30963784     0.87900
O451        O  0.03465783  0.34131581  0.50660357    -0.74400
O452        O  0.98909954  0.34088954  0.47027448    -0.74500
O453        O  0.99367059  0.33863906  0.51118650    -0.74500
O454        O  0.03020705  0.34334121  0.46585835    -0.74600
O455        O  0.03255547  0.30941177  0.46393642    -0.74500
O456        O  0.99493757  0.30465133  0.50892319    -0.74500
O457        O  0.99096359  0.30698630  0.46757370    -0.74400
O458        O  0.03639125  0.30729040  0.50524172    -0.74500
Ni459      Ni  0.01180954  0.34220027  0.48852129     1.25400
Ni460      Ni  0.01377228  0.30582036  0.48632542     1.25400
C461        C  0.04303876  0.32446500  0.51203210     0.87800
C462        C  0.98242484  0.32405413  0.46286216     0.87700
C463        C  0.98828172  0.32092484  0.51762004     0.87700
C464        C  0.03775600  0.32723700  0.45761348     0.87900
O465        O  0.84049114  0.51379879  0.53279726    -0.74400
O466        O  0.83598043  0.47742211  0.48761678    -0.74500
O467        O  0.83424010  0.51838607  0.49241059    -0.74500
O468        O  0.84196111  0.47273561  0.52814053    -0.74600
O469        O  0.80822786  0.47136338  0.53350177    -0.74500
O470        O  0.80033963  0.51605346  0.49657106    -0.74500
O471        O  0.80223756  0.47474026  0.49268345    -0.74400
O472        O  0.80659268  0.51280540  0.53733524    -0.74500
Ni473      Ni  0.83934796  0.49562764  0.51007507     1.25400
Ni474      Ni  0.80311596  0.49365605  0.51521856     1.25400
C475        C  0.82436275  0.51965600  0.54232127     0.87800
C476        C  0.81851140  0.47000463  0.48267108     0.87700
C477        C  0.81603330  0.52482142  0.48868291     0.87700
C478        C  0.82634768  0.46447363  0.53676141     0.87900
C479        C  0.17744683  0.34309894  0.64534694     0.86500
C480        C  0.19020032  0.35687965  0.63102751    -0.53700
C481        C  0.17866379  0.36996959  0.61953320     0.09400
C482        C  0.15548772  0.36826543  0.62346371     0.20400
C483        C  0.16410651  0.35777752  0.65799245    -0.54500
C484        C  0.15264068  0.37090101  0.64659835     0.09500
C485        C  0.16202772  0.33238430  0.63078172    -0.54000
C486        C  0.15057145  0.34573968  0.61944737     0.10100
H487        H  0.20680403  0.35598533  0.62971959     0.14600
H488        H  0.14612209  0.37906728  0.61422719     0.00300
H489        H  0.16376959  0.35771434  0.67461489     0.14900
H490        H  0.15998035  0.31605905  0.62916520     0.14700
C491        C  0.15581677  0.66450232  0.32754051     0.86500
C492        C  0.16656312  0.64794759  0.34080427    -0.53700
C493        C  0.15357337  0.63731337  0.35327402     0.09400
C494        C  0.13116534  0.64418119  0.35150043     0.20400
C495        C  0.13909351  0.65229689  0.31609186    -0.54500
C496        C  0.12614435  0.64177392  0.32874524     0.09500
C497        C  0.14408551  0.67797096  0.34295969    -0.54000
C498        C  0.13131559  0.66719502  0.35542503     0.10100
H499        H  0.18260423  0.64378425  0.33987432     0.14600
H500        H  0.12055844  0.63595814  0.36194959     0.00300
H501        H  0.13779892  0.65185422  0.29953664     0.14900
H502        H  0.14598530  0.69443227  0.34413174     0.14700
C503        C  0.17346991  0.65507908  0.65582487     0.86500
C504        C  0.18531259  0.64542918  0.63786009    -0.53700
C505        C  0.17329505  0.63414879  0.62505900     0.09400
C506        C  0.15068407  0.63317943  0.63143198     0.20400
C507        C  0.15556625  0.66707208  0.64578393    -0.54500
C508        C  0.14381225  0.65553376  0.63293113     0.09500
C509        C  0.16250581  0.63694734  0.66641380    -0.54000
C510        C  0.15082715  0.62541598  0.65354832     0.10100
H511        H  0.20169329  0.64743398  0.63544803     0.14600
H512        H  0.14102236  0.62387370  0.62100686     0.00300
H513        H  0.15231917  0.68311279  0.64859136     0.14900
H514        H  0.16294819  0.63382258  0.68269689     0.14700
C515        C  0.16536618  0.35252708  0.31840356     0.86500
C516        C  0.14993363  0.34246073  0.33341368    -0.53700
C517        C  0.13902290  0.35613537  0.34484171     0.09400
C518        C  0.14445997  0.37853919  0.34045263     0.20400
C519        C  0.15194974  0.36736725  0.30577087    -0.54500
C520        C  0.14118629  0.38106846  0.31734864     0.09500
C521        C  0.17867206  0.36619634  0.33229553    -0.54000
C522        C  0.16767305  0.37970667  0.34373783     0.10100
H523        H  0.14723184  0.32625230  0.33513306     0.14600
H524        H  0.13579218  0.38965546  0.34997760     0.00300
H525        H  0.15075074  0.36679204  0.28920684     0.14900
H526        H  0.19522404  0.36463922  0.33366868     0.14700
O527        O  0.20948180  0.48369835  0.46527784    -0.74400
O528        O  0.21077091  0.52692076  0.50498678    -0.74500
O529        O  0.21408785  0.48546979  0.50672937    -0.74500
O530        O  0.20619329  0.52495401  0.46373911    -0.74600
O531        O  0.17230086  0.52239794  0.46770928    -0.74500
O532        O  0.18013193  0.48327069  0.51034123    -0.74500
O533        O  0.17687807  0.52423743  0.50858993    -0.74400
O534        O  0.17560461  0.48122363  0.46910125    -0.74500
Ni535      Ni  0.21137560  0.50531162  0.48505106     1.25400
Ni536      Ni  0.17506438  0.50264402  0.48906568     1.25400
C537        C  0.19227537  0.47559908  0.46030501     0.87800
C538        C  0.19392761  0.53275886  0.51332111     0.87700
C539        C  0.19828169  0.47815762  0.51588168     0.87700
C540        C  0.18790081  0.53025165  0.45873982     0.87900
C541        C  0.25843805  0.25277456  0.24225387    -0.02500
C542        C  0.76015557  0.24022878  0.25423004    -0.02500
C543        C  0.25323815  0.74081604  0.23228353    -0.02500
C544        C  0.25522760  0.24902175  0.74123806    -0.02500
C545        C  0.75623170  0.24314305  0.74006432    -0.02500
C546        C  0.75449316  0.74244803  0.25036018    -0.02500
C547        C  0.25490540  0.74895998  0.75102129    -0.02500
C548        C  0.17398007  0.15570646  0.15257923     0.86500
C549        C  0.16037019  0.16725726  0.13695782    -0.53700
C550        C  0.15010937  0.15466859  0.12374492     0.09400
C551        C  0.15402799  0.13189827  0.12754446     0.20400
C552        C  0.15882509  0.14079327  0.16321964    -0.54500
C553        C  0.14850174  0.12849482  0.14994961     0.09500
C554        C  0.18786332  0.14176300  0.13945947    -0.54000
C555        C  0.17728193  0.12938507  0.12646328     0.10100
H556        H  0.15923701  0.18380938  0.13628060     0.14600
H557        H  0.14563190  0.12156547  0.11696865     0.00300
H558        H  0.15562155  0.13999619  0.17942308     0.14900
H559        H  0.20452232  0.14179941  0.14027031     0.14700
C560        C  0.15801849  0.16464955  0.82915011     0.86500
C561        C  0.14279505  0.15121600  0.81717666    -0.53700
C562        C  0.13150583  0.13856457  0.82928917     0.09400
C563        C  0.13622619  0.14038702  0.85210619     0.20400
C564        C  0.14467751  0.17590151  0.84525359    -0.54500
C565        C  0.13352979  0.16301559  0.85724026     0.09500
C566        C  0.17086444  0.14944363  0.84195204    -0.54000
C567        C  0.15940130  0.13655079  0.85377817     0.10100
H568        H  0.14137036  0.15139862  0.80061945     0.14600
H569        H  0.12659032  0.13029111  0.86184355     0.00300
H570        H  0.14445590  0.19219515  0.84807583     0.14900
H571        H  0.18748635  0.14860545  0.84109678     0.14700
C572        C  0.85849161  0.15205698  0.17208970     0.86500
C573        C  0.84522925  0.14008365  0.15667619    -0.53700
C574        C  0.85631599  0.12805542  0.14372092     0.09400
C575        C  0.87949153  0.12886718  0.14735260     0.20400
C576        C  0.87163287  0.13568004  0.18302452    -0.54500
C577        C  0.88227425  0.12329391  0.16995028     0.09500
C578        C  0.87421513  0.16377227  0.15869031    -0.54000
C579        C  0.88515496  0.15145432  0.14598273     0.10100
H580        H  0.82860121  0.14122837  0.15595629     0.14600
H581        H  0.88854841  0.11926807  0.13663376     0.00300
H582        H  0.87236002  0.13398017  0.19953577     0.14900
H583        H  0.87750762  0.17995956  0.15932628     0.14700
C584        C  0.17365823  0.82842520  0.13071161     0.86500
C585        C  0.16245536  0.84414320  0.14430723    -0.53700
C586        C  0.15048893  0.85753077  0.13372378     0.09400
C587        C  0.15088465  0.85436786  0.11057208     0.20400
C588        C  0.15669584  0.81836180  0.11776425    -0.54500
C589        C  0.14467788  0.83200415  0.10747019     0.09500
C590        C  0.18575013  0.84178892  0.11526501    -0.54000
C591        C  0.17368888  0.85535814  0.10483350     0.10100
H592        H  0.16383171  0.84457971  0.16086627     0.14600
H593        H  0.14103308  0.86539336  0.10210218     0.00300
H594        H  0.15397399  0.80197923  0.11738781     0.14900
H595        H  0.20212542  0.84115334  0.11262639     0.14700
C596        C  0.84665404  0.83899292  0.16820813     0.86500
C597        C  0.83369854  0.85197649  0.15330335    -0.53700
C598        C  0.84506364  0.86361027  0.14019840     0.09400
C599        C  0.86829085  0.86156603  0.14333149     0.20400
C600        C  0.86154139  0.82675794  0.15436452    -0.54500
C601        C  0.87270657  0.83870291  0.14134688     0.09500
C602        C  0.86070525  0.85469949  0.17907439    -0.54000
C603        C  0.87193742  0.86642922  0.16594303     0.10100
H604        H  0.81704012  0.85144749  0.15276963     0.14600
H605        H  0.87756627  0.87109849  0.13269484     0.00300
H606        H  0.86299911  0.81021417  0.15470340     0.14900
H607        H  0.86218263  0.85665961  0.19541629     0.14700
O608        O  0.04130808  0.00914518  0.19091615    -0.74400
O609        O  0.99874121  0.96875178  0.19392533    -0.74500
O610        O  0.04026656  0.96779702  0.18923815    -0.74500
O611        O  0.00004896  0.01015257  0.19566803    -0.74600
O612        O  0.99686406  0.01192859  0.16175416    -0.74500
O613        O  0.03606516  0.96901804  0.15542594    -0.74500
O614        O  0.99493981  0.97071561  0.16011561    -0.74400
O615        O  0.03783620  0.01009753  0.15700790    -0.74500
Ni616      Ni  0.02022681  0.98886284  0.19367587     1.25400
Ni617      Ni  0.01627094  0.99046436  0.15740092     1.25400
C618        C  0.04653269  0.01631242  0.17340951     0.87800
C619        C  0.98970481  0.96317467  0.17742523     0.87700
C620        C  0.04495302  0.96157101  0.17124092     0.87700
C621        C  0.99207635  0.01824914  0.17967327     0.87900
C622        C  0.15431751  0.83958616  0.82992253     0.86500
C623        C  0.16564783  0.85397597  0.84485340    -0.53700
C624        C  0.15306443  0.86720846  0.85509533     0.09400
C625        C  0.13036554  0.86504943  0.84925251     0.20400
C626        C  0.13773400  0.82909595  0.84341161    -0.54500
C627        C  0.12507636  0.84253835  0.85334086     0.09500
C628        C  0.14186432  0.85374384  0.81576961    -0.54000
C629        C  0.12968554  0.86718373  0.82594400     0.10100
H630        H  0.18213707  0.85347195  0.84729258     0.14600
H631        H  0.12029180  0.87618930  0.85719160     0.00300
H632        H  0.13550728  0.81278944  0.84498080     0.14900
H633        H  0.14271703  0.85329772  0.79917434     0.14700
O634        O  0.17516007  0.02493394  0.96835886    -0.74400
O635        O  0.17879362  0.98283688  0.00840586    -0.74500
O636        O  0.18026869  0.02418396  0.00901435    -0.74500
O637        O  0.17351737  0.98374678  0.96743774    -0.74600
O638        O  0.20743054  0.98200568  0.96313532    -0.74500
O639        O  0.21428805  0.02277396  0.00519100    -0.74500
O640        O  0.21271775  0.98115965  0.00425078    -0.74400
O641        O  0.20909004  0.02360022  0.96383198    -0.74500
Ni642      Ni  0.17578200  0.00393856  0.98848165     1.25400
Ni643      Ni  0.21214568  0.00236701  0.98395380     1.25400
C644        C  0.19148238  0.03127967  0.95953697     0.87800
C645        C  0.19620598  0.97485350  0.01283889     0.87700
C646        C  0.19827674  0.03030774  0.01384583     0.87700
C647        C  0.18923360  0.97616494  0.95839006     0.87900
C648        C  0.83678029  0.15955473  0.84492627     0.86500
C649        C  0.82496644  0.14246491  0.85655500    -0.53700
C650        C  0.83730525  0.13024874  0.86825056     0.09400
C651        C  0.86002328  0.13608295  0.86744834     0.20400
C652        C  0.84847765  0.17097863  0.86205060    -0.54500
C653        C  0.86053097  0.15855281  0.87380178     0.09500
C654        C  0.85351948  0.14795456  0.83286057    -0.54000
C655        C  0.86573381  0.13593285  0.84478415     0.10100
H656        H  0.80856031  0.14005487  0.85625374     0.14600
H657        H  0.87011669  0.12618095  0.87695367     0.00300
H658        H  0.84720001  0.18731710  0.86474397     0.14900
H659        H  0.85574615  0.14944346  0.81645124     0.14700
O660        O  0.02848840  0.15669768  0.01616124    -0.74400
O661        O  0.98250428  0.15746431  0.98020766    -0.74500
O662        O  0.02380365  0.15851135  0.97536300    -0.74500
O663        O  0.98756323  0.15600292  0.02119252    -0.74600
O664        O  0.98704260  0.19000482  0.02278404    -0.74500
O665        O  0.02300254  0.19253101  0.97655899    -0.74500
O666        O  0.98138081  0.19145807  0.98156030    -0.74400
O667        O  0.02825576  0.19074730  0.01748381    -0.74500
Ni668      Ni  0.00555332  0.15600086  0.99812761     1.25400
Ni669      Ni  0.00483854  0.19243683  0.99959290     1.25400
C670        C  0.03606245  0.17348914  0.02274640     0.87800
C671        C  0.97418824  0.17441144  0.97495556     0.87700
C672        C  0.02990449  0.17593702  0.96874318     0.87700
C673        C  0.98170185  0.17254011  0.02991246     0.87900
C674        C  0.82767985  0.84900798  0.83601889     0.86500
C675        C  0.81608774  0.86094601  0.85292234    -0.53700
C676        C  0.82873374  0.87110633  0.86594705     0.09400
C677        C  0.85159070  0.86894695  0.86102102     0.20400
C678        C  0.84110661  0.86549864  0.82553458    -0.54500
C679        C  0.85362128  0.87593984  0.83869469     0.09500
C680        C  0.84295424  0.83533609  0.84785694    -0.54000
C681        C  0.85562218  0.84586369  0.86061655     0.10100
H682        H  0.79962682  0.86187352  0.85483558     0.14600
H683        H  0.86168761  0.87733265  0.87184006     0.00300
H684        H  0.84047286  0.86876367  0.80925660     0.14900
H685        H  0.84395668  0.81885817  0.84596478     0.14700
O686        O  0.96983939  0.80175484  0.97161351    -0.74400
O687        O  0.01437989  0.79982899  0.01006186    -0.74500
O688        O  0.97271350  0.80064165  0.01335190    -0.74500
O689        O  0.01142131  0.80132568  0.96849080    -0.74600
O690        O  0.01142187  0.83536507  0.96961485    -0.74500
O691        O  0.97389441  0.83464888  0.01425925    -0.74500
O692        O  0.01524014  0.83392375  0.01051375    -0.74400
O693        O  0.97026629  0.83575705  0.97299757    -0.74500
Ni694      Ni  0.99202940  0.79962266  0.99086582     1.25400
Ni695      Ni  0.99266711  0.83607168  0.99191153     1.25400
C696        C  0.96291626  0.81913991  0.96566462     0.87800
C697        C  0.02234446  0.81659561  0.01636347     0.87700
C698        C  0.96710600  0.81770093  0.02136480     0.87700
C699        C  0.01782030  0.81864213  0.96170572     0.87900
O700        O  0.80114040  0.97900416  0.98718566    -0.74400
O701        O  0.80536864  0.01993612  0.02915650    -0.74500
O702        O  0.80246714  0.02049983  0.98764816    -0.74500
O703        O  0.80387327  0.97844039  0.02869651    -0.74600
O704        O  0.83793287  0.97728219  0.02603753    -0.74500
O705        O  0.83661386  0.01961576  0.98572844    -0.74500
O706        O  0.83946983  0.01836653  0.02690995    -0.74400
O707        O  0.83521904  0.97833259  0.98483924    -0.74500
Ni708      Ni  0.80196329  0.99952127  0.00825282     1.25400
Ni709      Ni  0.83848133  0.99835723  0.00577792     1.25400
C710        C  0.81760643  0.97192392  0.97903045     0.87800
C711        C  0.82320788  0.02574542  0.03507664     0.87700
C712        C  0.81933912  0.02701110  0.97992377     0.87700
C713        C  0.82122361  0.97097228  0.03422350     0.87900
O714        O  0.01936607  0.97805842  0.82617518    -0.74400
O715        O  0.98338973  0.02351161  0.83400898    -0.74500
O716        O  0.97851453  0.98245849  0.83213802    -0.74500
O717        O  0.02410762  0.01910781  0.82814842    -0.74600
O718        O  0.01958727  0.02159371  0.79448636    -0.74500
O719        O  0.97391921  0.98438036  0.79845814    -0.74500
O720        O  0.97870494  0.02565173  0.80033678    -0.74400
O721        O  0.01516240  0.98033330  0.79240807    -0.74500
Ni722      Ni  0.00151911  0.00067356  0.83128036     1.25400
Ni723      Ni  0.99667084  0.00301684  0.79519835     1.25400
C724        C  0.02339193  0.97180991  0.80804164     0.87800
C725        C  0.97514844  0.03219151  0.81847893     0.87700
C726        C  0.96853384  0.97738695  0.81603160     0.87700
C727        C  0.02919562  0.02675906  0.81080650     0.87900
C728        C  0.75193154  0.74820735  0.74409193    -0.02500
C729        C  0.82063934  0.89106714  0.91934201    -0.27600
C730        C  0.81325129  0.91082145  0.91528403     0.02000
C731        C  0.80871082  0.91658046  0.89503512     0.30100
C732        C  0.81274197  0.90299334  0.87898350    -0.19400
C733        C  0.82126802  0.88371130  0.88300849    -0.28800
C734        C  0.82470661  0.87752551  0.90330178     0.44100
C735        C  0.81374497  0.92621814  0.93171133     0.05300
O736        O  0.80203070  0.93600565  0.89067938    -0.57300
H737        H  0.81026971  0.90789693  0.86332870     0.18200
O738        O  0.83241943  0.85844079  0.90751833    -0.64000
H739        H  0.82420463  0.88653666  0.93489813     0.16700
C740        C  0.79576034  0.93409839  0.94059877     0.28900
C741        C  0.79714269  0.94896247  0.95600314    -0.24900
C742        C  0.81639911  0.95614290  0.96271142    -0.24200
C743        C  0.83437808  0.94802802  0.95361242     0.40400
C744        C  0.83288535  0.93324516  0.93831690    -0.26700
O745        O  0.77683572  0.92743986  0.93429234    -0.58600
H746        H  0.78310430  0.95486543  0.96266954     0.16000
O747        O  0.85355687  0.95463025  0.95919759    -0.60000
H748        H  0.84681459  0.92731411  0.93140917     0.14500
H749        H  0.84745796  0.86036859  0.90892019     0.46300
H750        H  0.77374457  0.91541768  0.94303403     0.41700
H751        H  0.85830460  0.94472836  0.96969555     0.45200
H752        H  0.78682976  0.93514692  0.89086411     0.36600
C753        C  0.90775135  0.83688665  0.88398619    -0.27600
C754        C  0.90290604  0.82391439  0.90040252     0.02000
C755        C  0.88289408  0.81590700  0.90201306     0.30100
C756        C  0.86768796  0.82211671  0.88809370    -0.19400
C757        C  0.87227590  0.83635477  0.87266711    -0.28800
C758        C  0.89257476  0.84324309  0.87027597     0.44100
C759        C  0.91783584  0.82190659  0.91734945     0.05300
O760        O  0.87762310  0.80361011  0.91819835    -0.57300
H761        H  0.85205046  0.81684212  0.89013758     0.18200
O762        O  0.89762292  0.85645482  0.85473580    -0.64000
H763        H  0.92313899  0.84301495  0.88248518     0.16700
C764        C  0.92621028  0.80298716  0.92334373     0.28900
C765        C  0.94046702  0.80216265  0.93944453    -0.24900
C766        C  0.94670575  0.82011250  0.94964930    -0.24200
C767        C  0.93800928  0.83899285  0.94359319     0.40400
C768        C  0.92385794  0.83971859  0.92758926    -0.26700
O769        O  0.92089870  0.78534212  0.91333619    -0.58600
H770        H  0.94695445  0.78747651  0.94363082     0.16000
O771        O  0.94344273  0.85698378  0.95289758    -0.60000
H772        H  0.91745979  0.85438467  0.92314417     0.14500
H773        H  0.89904669  0.87005745  0.86129318     0.46300
H774        H  0.93131050  0.78372151  0.90237094     0.41700
H775        H  0.93268574  0.85943776  0.96336799     0.45200
H776        H  0.87737987  0.78952902  0.91257528     0.36600
C777        C  0.89713419  0.90525989  0.81308785    -0.27600
C778        C  0.89874024  0.92244068  0.82592475     0.02000
C779        C  0.88395815  0.92521761  0.84146279     0.30100
C780        C  0.86881154  0.91032847  0.84476751    -0.19400
C781        C  0.86789843  0.89263848  0.83265494    -0.28800
C782        C  0.88181014  0.89048031  0.81627645     0.44100
C783        C  0.91633654  0.93684593  0.82345176     0.05300
O784        O  0.88390521  0.94271061  0.85308859    -0.57300
H785        H  0.85786218  0.91251119  0.85707682     0.18200
O786        O  0.88154649  0.87329602  0.80426657    -0.64000
H787        H  0.90827949  0.90290071  0.80099750     0.16700
C788        C  0.92946774  0.94130336  0.83998740     0.28900
C789        C  0.94628938  0.95440663  0.83723362    -0.24900
C790        C  0.95055121  0.96334650  0.81808963    -0.24200
C791        C  0.93745408  0.95870629  0.80148222     0.40400
C792        C  0.92063661  0.94552490  0.80424030    -0.26700
O793        O  0.92670169  0.93192181  0.85859757    -0.58600
H794        H  0.95617606  0.95735408  0.85022152     0.16000
O795        O  0.94098054  0.96674654  0.78241412    -0.60000
H796        H  0.91082692  0.94213286  0.79129922     0.14500
H797        H  0.87453482  0.87751689  0.79146968     0.46300
H798        H  0.92375322  0.94309251  0.86843923     0.41700
H799        H  0.93281406  0.97955637  0.78193669     0.45200
H800        H  0.88569469  0.93815822  0.86746697     0.36600
C801        C  0.78756266  0.77500430  0.78314399    -0.27600
C802        C  0.78144386  0.79545961  0.78182340     0.02000
C803        C  0.76513271  0.80084796  0.76890349     0.30100
C804        C  0.75560608  0.78587071  0.75697130    -0.19400
C805        C  0.76226785  0.76519846  0.75729046    -0.28800
C806        C  0.77792323  0.75993340  0.77150842     0.44100
C807        C  0.79232994  0.81080900  0.79427531     0.05300
O808        O  0.75887351  0.82085151  0.76730086    -0.57300
H809        H  0.74258114  0.79074718  0.74800284     0.18200
O810        O  0.78447307  0.74007685  0.77358679    -0.64000
H811        H  0.79985735  0.77063426  0.79343992     0.16700
C812        C  0.78214350  0.82180194  0.80966659     0.28900
C813        C  0.79331450  0.83450341  0.82279427    -0.24900
C814        C  0.81484115  0.83654181  0.82089875    -0.24200
C815        C  0.82480693  0.82563699  0.80502895     0.40400
C816        C  0.81356117  0.81306345  0.79188925    -0.26700
O817        O  0.76150508  0.81904205  0.81296288    -0.58600
H818        H  0.78474873  0.84199069  0.83470671     0.16000
O819        O  0.84568349  0.82694827  0.80242089    -0.60000
H820        H  0.82156319  0.80457738  0.78007459     0.14500
H821        H  0.77887685  0.73536493  0.78690356     0.46300
H822        H  0.75495243  0.83222190  0.80918523     0.41700
H823        H  0.85130724  0.81391468  0.80784025     0.45200
H824        H  0.74486199  0.82127572  0.77325614     0.36600
C825        C  0.88744992  0.15888826  0.92486787    -0.27600
C826        C  0.90354308  0.17261159  0.92109366     0.02000
C827        C  0.90397501  0.18356240  0.90252637     0.30100
C828        C  0.88888351  0.18004020  0.88764686    -0.19400
C829        C  0.87342698  0.16550518  0.89103600    -0.28800
C830        C  0.87242773  0.15534752  0.91003036     0.44100
C831        C  0.92108399  0.17338042  0.93543911     0.05300
O832        O  0.92010636  0.19627603  0.89806328    -0.57300
H833        H  0.89006751  0.18761752  0.87293594     0.18200
O834        O  0.85734896  0.14122353  0.91387524    -0.64000
H835        H  0.88699279  0.15032976  0.93907553     0.16700
C836        C  0.92633027  0.19134351  0.94603808     0.28900
C837        C  0.94373109  0.19164065  0.95870974    -0.24900
C838        C  0.95598067  0.17403673  0.96119813    -0.24200
C839        C  0.95038285  0.15598340  0.95064621     0.40400
C840        C  0.93305686  0.15578339  0.93806370    -0.26700
O841        O  0.91449571  0.20861512  0.94420407    -0.58600
H842        H  0.94749989  0.20561513  0.96675930     0.16000
O843        O  0.96176667  0.13839077  0.95233325    -0.60000
H844        H  0.92915679  0.14186164  0.92995556     0.14500
H845        H  0.84603165  0.14907792  0.92031561     0.46300
H846        H  0.90312112  0.20676179  0.95413571     0.41700
H847        H  0.97196982  0.13911721  0.94107806     0.45200
H848        H  0.91504361  0.21025565  0.90111388     0.36600
C849        C  0.81050712  0.10282184  0.91187340    -0.27600
C850        C  0.82286407  0.08529938  0.91357378     0.02000
C851        C  0.83783416  0.08135234  0.89855252     0.30100
C852        C  0.84124715  0.09551721  0.88289683    -0.19400
C853        C  0.82997190  0.11378087  0.88199453    -0.28800
C854        C  0.81402784  0.11711664  0.89623984     0.44100
C855        C  0.82109159  0.07178762  0.93165678     0.05300
O856        O  0.84922987  0.06367757  0.89916848    -0.57300
H857        H  0.85331665  0.09257085  0.87184820     0.18200
O858        O  0.80262980  0.13477156  0.89578630    -0.64000
H859        H  0.79882738  0.10591686  0.92327904     0.16700
C860        C  0.83791554  0.06918624  0.94491337     0.28900
C861        C  0.83696487  0.05481592  0.96071328    -0.24900
C862        C  0.81914064  0.04316171  0.96397763    -0.24200
C863        C  0.80181349  0.04672141  0.95145434     0.40400
C864        C  0.80293453  0.06089483  0.93535224    -0.26700
O865        O  0.85550408  0.08043651  0.94233756    -0.58600
H866        H  0.85030699  0.05273522  0.97039800     0.16000
O867        O  0.78412779  0.03564589  0.95403163    -0.60000
H868        H  0.78982284  0.06293145  0.92535154     0.14500
H869        H  0.81074950  0.14493424  0.90359440     0.46300
H870        H  0.85316997  0.09321932  0.95016701     0.41700
H871        H  0.77509878  0.04440163  0.96256491     0.45200
H872        H  0.86326515  0.06793948  0.90321382     0.36600
C873        C  0.91920986  0.11432034  0.84013583    -0.27600
C874        C  0.91567869  0.09690822  0.82819292     0.02000
C875        C  0.89597940  0.09339996  0.82004262     0.30100
C876        C  0.87988522  0.10692320  0.82454237    -0.19400
C877        C  0.88329080  0.12391267  0.83714835    -0.28800
C878        C  0.90314313  0.12777308  0.84467158     0.44100
C879        C  0.93217496  0.08162912  0.82576195     0.05300
O880        O  0.89201825  0.07601967  0.80899018    -0.57300
H881        H  0.86454967  0.10360427  0.81905142     0.18200
O882        O  0.90692152  0.14465714  0.85652405    -0.64000
H883        H  0.93434545  0.11717956  0.84638919     0.16700
C884        C  0.94063170  0.07730469  0.80647217     0.28900
C885        C  0.95488347  0.06142570  0.80436536    -0.24900
C886        C  0.96116670  0.04985638  0.82143744    -0.24200
C887        C  0.95352869  0.05513898  0.84098900     0.40400
C888        C  0.93904160  0.07081321  0.84296420    -0.26700
O889        O  0.93487144  0.08834808  0.78956401    -0.58600
H890        H  0.96088371  0.05807397  0.78926969     0.16000
O891        O  0.95938257  0.04458617  0.85818030    -0.60000
H892        H  0.93274613  0.07421894  0.85793893     0.14500
H893        H  0.90779399  0.13945931  0.87076369     0.46300
H894        H  0.94323942  0.10100684  0.79005428     0.41700
H895        H  0.97106742  0.05244691  0.86388741     0.45200
H896        H  0.89246695  0.08036489  0.79445443     0.36600
C897        C  0.15511114  0.90074720  0.90250463    -0.27600
C898        C  0.17229401  0.91304031  0.89850961     0.02000
C899        C  0.18394243  0.90941131  0.88070279     0.30100
C900        C  0.17795017  0.89407423  0.86690298    -0.19400
C901        C  0.16032233  0.88222236  0.87059659    -0.28800
C902        C  0.14918363  0.88539373  0.88885756     0.44100
C903        C  0.17740697  0.92989345  0.91285872     0.05300
O904        O  0.20087605  0.92110899  0.87640704    -0.57300
H905        H  0.18671933  0.89189429  0.85297914     0.18200
O906        O  0.13250885  0.87350958  0.89366040    -0.64000
H907        H  0.14622792  0.90308096  0.91633739     0.16700
C908        C  0.16305467  0.94552094  0.91678891     0.28900
C909        C  0.16738337  0.96065176  0.93128630    -0.24900
C910        C  0.18593479  0.96052072  0.94226303    -0.24200
C911        C  0.20045936  0.94500288  0.93813738     0.40400
C912        C  0.19618075  0.92992132  0.92343398    -0.26700
O913        O  0.14489636  0.94635183  0.90617357    -0.58600
H914        H  0.15607693  0.97252282  0.93400144     0.16000
O915        O  0.21855022  0.94400276  0.94882625    -0.60000
H916        H  0.20728230  0.91786365  0.92071806     0.14500
H917        H  0.13830355  0.86064223  0.89928689     0.46300
H918        H  0.13433125  0.94109499  0.91576584     0.41700
H919        H  0.21548000  0.93547023  0.96101131     0.45200
H920        H  0.19567222  0.93263014  0.86798345     0.36600
C921        C  0.10405656  0.91722676  0.81435235    -0.27600
C922        C  0.08640951  0.91059915  0.80408062     0.02000
C923        C  0.08453382  0.88997991  0.79830127     0.30100
C924        C  0.09975003  0.87593547  0.80402258    -0.19400
C925        C  0.11653829  0.88237004  0.81580022    -0.28800
C926        C  0.11908212  0.90322209  0.82026517     0.44100
C927        C  0.06863898  0.92442608  0.80345732     0.05300
O928        O  0.06737473  0.88328786  0.78816740    -0.57300
H929        H  0.09770217  0.85985267  0.80058809     0.18200
O930        O  0.13552356  0.90984168  0.83157129    -0.64000
H931        H  0.10546941  0.93307030  0.81901486     0.16700
C932        C  0.05602643  0.92596408  0.82082325     0.28900
C933        C  0.04085562  0.94098844  0.82173197    -0.24900
C934        C  0.03801739  0.95472087  0.80543921    -0.24200
C935        C  0.05019168  0.95262811  0.78764512     0.40400
C936        C  0.06547325  0.93751894  0.78678684    -0.26700
O937        O  0.05877156  0.91306650  0.83718880    -0.58600
H938        H  0.03156702  0.94216350  0.83544766     0.16000
O939        O  0.04791210  0.96574974  0.77140925    -0.60000
H940        H  0.07530221  0.93647469  0.77344173     0.14500
H941        H  0.14728765  0.90999299  0.82192431     0.46300
H942        H  0.06878027  0.92008756  0.84619566     0.41700
H943        H  0.05705621  0.97748085  0.77445672     0.45200
H944        H  0.05768946  0.87894882  0.79905658     0.36600
C945        C  0.07387019  0.84190945  0.88116627    -0.27600
C946        C  0.07727643  0.82689293  0.89612865     0.02000
C947        C  0.09573073  0.81565666  0.89577255     0.30100
C948        C  0.11090420  0.82030350  0.88125611    -0.19400
C949        C  0.10796270  0.83618001  0.86700774    -0.28800
C950        C  0.08900222  0.84662033  0.86669667     0.44100
C951        C  0.06213031  0.82433455  0.91288081     0.05300
O952        O  0.09939182  0.80064696  0.90999846    -0.57300
H953        H  0.12533790  0.81205761  0.88171699     0.18200
O954        O  0.08484555  0.86094072  0.85187249    -0.64000
H955        H  0.05950461  0.85029642  0.88093592     0.16700
C956        C  0.05721977  0.84102891  0.92551505     0.28900
C957        C  0.04292945  0.83874210  0.94127077    -0.24900
C958        C  0.03302093  0.81993989  0.94476735    -0.24200
C959        C  0.03785927  0.80318889  0.93199670     0.40400
C960        C  0.05246106  0.80543739  0.91629825    -0.26700
O961        O  0.06695581  0.85948621  0.92306501    -0.58600
H962        H  0.03974456  0.85185561  0.95089246     0.16000
O963        O  0.02836623  0.78465040  0.93455766    -0.60000
H964        H  0.05601861  0.79249737  0.90657053     0.14500
H965        H  0.08341415  0.87416532  0.85917656     0.46300
H966        H  0.05675552  0.86852552  0.91631044     0.41700
H967        H  0.01626858  0.78506694  0.92535177     0.45200
H968        H  0.10530026  0.80784481  0.92197356     0.36600
C969        C  0.91875383  0.89107598  0.18983606    -0.27600
C970        C  0.91933975  0.90964926  0.17910177     0.02000
C971        C  0.90298043  0.91489820  0.16602889     0.30100
C972        C  0.88708175  0.90101695  0.16267958    -0.19400
C973        C  0.88703729  0.88194553  0.17249401    -0.28800
C974        C  0.90264607  0.87724446  0.18668513     0.44100
C975        C  0.93806037  0.92234626  0.17948490     0.05300
O976        O  0.90293751  0.93317561  0.15568556    -0.57300
H977        H  0.87504541  0.90490415  0.15189847     0.18200
O978        O  0.90333460  0.85846360  0.19603884    -0.64000
H979        H  0.93136648  0.88679761  0.19977045     0.16700
C980        C  0.94527938  0.93147461  0.19756026     0.28900
C981        C  0.96243272  0.94441254  0.19685419    -0.24900
C982        C  0.97268223  0.94819056  0.17825503    -0.24200
C983        C  0.96586661  0.93817891  0.16037153     0.40400
C984        C  0.94873612  0.92541906  0.16113593    -0.26700
O985        O  0.93509022  0.92864837  0.21571759    -0.58600
H986        H  0.96737383  0.95188919  0.21078915     0.16000
O987        O  0.97602692  0.94041931  0.14210218    -0.60000
H988        H  0.94362528  0.91797198  0.14723111     0.14500
H989        H  0.89845563  0.86088553  0.21021127     0.46300
H990        H  0.94314353  0.91813115  0.22317249     0.41700
H991        H  0.96768885  0.95029257  0.13409089     0.45200
H992        H  0.89801178  0.94341703  0.16574778     0.36600
C993        C  0.81565612  0.90520368  0.11215778    -0.27600
C994        C  0.82577772  0.90498297  0.09317766     0.02000
C995        C  0.84003799  0.88932167  0.08897013     0.30100
C996        C  0.84534755  0.87532221  0.10418721    -0.19400
C997        C  0.83636044  0.87639689  0.12365018    -0.28800
C998        C  0.82076932  0.89089496  0.12736002     0.44100
C999        C  0.82377020  0.92247171  0.07890627     0.05300
O1000       O  0.84972261  0.88828461  0.07034577    -0.57300
H1001       H  0.85704750  0.86396237  0.10096115     0.18200
O1002       O  0.81185298  0.89242444  0.14631266    -0.64000
H1003       H  0.80473233  0.91721805  0.11564720     0.16700
C1004       C  0.80481046  0.92843847  0.07048888     0.28900
C1005       C  0.80406524  0.94443521  0.05613739    -0.24900
C1006       C  0.82208120  0.95477139  0.05015541    -0.24200
C1007       C  0.84089833  0.94917999  0.05934638     0.40400
C1008       C  0.84155357  0.93328008  0.07357465    -0.26700
O1009       O  0.78715360  0.91813593  0.07544417    -0.58600
H1010       H  0.78940807  0.94846685  0.04940843     0.16000
O1011       O  0.85875861  0.95937092  0.05489012    -0.60000
H1012       H  0.85616860  0.92923616  0.08041933     0.14500
H1013       H  0.79838274  0.88549071  0.14498890     0.46300
H1014       H  0.78000867  0.92697780  0.08551751     0.41700
H1015       H  0.86602740  0.95059855  0.04483740     0.45200
H1016       H  0.83994796  0.88108251  0.06123361     0.36600
C1017       C  0.92094081  0.83183360  0.11012565    -0.27600
C1018       C  0.91314486  0.82303481  0.09212220     0.02000
C1019       C  0.89229300  0.81723698  0.09147292     0.30100
C1020       C  0.87948170  0.82100593  0.10833915    -0.19400
C1021       C  0.88712785  0.83086666  0.12577980    -0.28800
C1022       C  0.90802676  0.83608058  0.12670999     0.44100
C1023       C  0.92660588  0.82140940  0.07378421     0.05300
O1024       O  0.88406652  0.80885190  0.07408974    -0.57300
H1025       H  0.86328907  0.81733237  0.10733100     0.18200
O1026       O  0.91589651  0.84552721  0.14371867    -0.64000
H1027       H  0.93699712  0.83604576  0.11107561     0.16700
C1028       C  0.93698929  0.83876781  0.06634661     0.28900
C1029       C  0.94986180  0.83718259  0.04930147    -0.24900
C1030       C  0.95289794  0.81838070  0.03925675    -0.24200
C1031       C  0.94236891  0.80097293  0.04663205     0.40400
C1032       C  0.92926820  0.80262108  0.06368098    -0.26700
O1033       O  0.93399325  0.85758808  0.07517086    -0.58600
H1034       H  0.95756324  0.85088893  0.04401773     0.16000
O1035       O  0.94438420  0.78239622  0.03711330    -0.60000
H1036       H  0.92136972  0.78911408  0.06918929     0.14500
H1037       H  0.91618601  0.86031323  0.14029800     0.46300
H1038       H  0.94683280  0.86053754  0.08276971     0.41700
H1039       H  0.95459301  0.77473993  0.04538668     0.45200
H1040       H  0.87814542  0.82054839  0.06640739     0.36600
C1041       C  0.20259791  0.90043384  0.08245819    -0.27600
C1042       C  0.19127594  0.90384560  0.06455337     0.02000
C1043       C  0.17574932  0.89002286  0.05893140     0.30100
C1044       C  0.17102171  0.87354262  0.07169600    -0.19400
C1045       C  0.18155972  0.87067393  0.09016633    -0.28800
C1046       C  0.19782187  0.88393052  0.09530864     0.44100
C1047       C  0.19395462  0.92300925  0.05298740     0.05300
O1048       O  0.16491221  0.89278543  0.04113018    -0.57300
H1049       H  0.15861065  0.86334944  0.06748163     0.18200
O1050       O  0.20783487  0.88200716  0.11366739    -0.64000
H1051       H  0.21439995  0.91117910  0.08700116     0.16700
C1052       C  0.17817833  0.93767514  0.05302141     0.28900
C1053       C  0.17959162  0.95482962  0.04045968    -0.24900
C1054       C  0.19674178  0.95783420  0.02776150    -0.24200
C1055       C  0.21316812  0.94369766  0.02864663     0.40400
C1056       C  0.21164598  0.92635469  0.04122979    -0.26700
O1057       O  0.16095583  0.93500239  0.06482736    -0.58600
H1058       H  0.16693278  0.96560495  0.04036412     0.16000
O1059       O  0.23012196  0.94593326  0.01638498    -0.60000
H1060       H  0.22392571  0.91515150  0.04125210     0.14500
H1061       H  0.22116565  0.87546062  0.11031976     0.46300
H1062       H  0.16446770  0.94092364  0.07834166     0.41700
H1063       H  0.24056421  0.95261186  0.02515746     0.45200
H1064       H  0.15135049  0.89824412  0.04539443     0.36600
C1065       C  0.10850539  0.88282341  0.16457592    -0.27600
C1066       C  0.10926526  0.90276285  0.15672626     0.02000
C1067       C  0.12486301  0.90824906  0.14290511     0.30100
C1068       C  0.13890899  0.89352297  0.13625074    -0.19400
C1069       C  0.13763269  0.87333934  0.14338833    -0.28800
C1070       C  0.12267975  0.86810052  0.15804696     0.44100
C1071       C  0.09240634  0.91709105  0.16106986     0.05300
O1072       O  0.12619236  0.92787769  0.13556753    -0.57300
H1073       H  0.15046299  0.89770721  0.12505512     0.18200
O1074       O  0.12070366  0.84828940  0.16469499    -0.64000
H1075       H  0.09634827  0.87846257  0.17503431     0.16700
C1076       C  0.07717333  0.92053926  0.14625807     0.28900
C1077       C  0.06167509  0.93482501  0.14992660    -0.24900
C1078       C  0.06098671  0.94577659  0.16841209    -0.24200
C1079       C  0.07614664  0.94199359  0.18341829     0.40400
C1080       C  0.09172294  0.92767457  0.17965813    -0.26700
O1081       O  0.07757670  0.91027723  0.12795795    -0.58600
H1082       H  0.05020609  0.93738601  0.13819186     0.16000
O1083       O  0.07657015  0.95295598  0.20129152    -0.60000
H1084       H  0.10352862  0.92513992  0.19106391     0.14500
H1085       H  0.12811000  0.84776959  0.17793873     0.46300
H1086       H  0.07032684  0.89720154  0.13059722     0.41700
H1087       H  0.06950416  0.94420700  0.21150511     0.45200
H1088       H  0.11867283  0.92775920  0.12237701     0.36600
C1089       C  0.05948190  0.80164181  0.05877454    -0.27600
C1090       C  0.07418605  0.81719135  0.05695902     0.02000
C1091       C  0.07206244  0.83207620  0.04159060     0.30100
C1092       C  0.05516643  0.83157508  0.02844777    -0.19400
C1093       C  0.04023412  0.81619964  0.03026771    -0.28800
C1094       C  0.04258294  0.80100982  0.04546750     0.44100
C1095       C  0.09144591  0.81854454  0.07147602     0.05300
O1096       O  0.08656925  0.84710013  0.03923537    -0.57300
H1097       H  0.05378993  0.84321602  0.01670400     0.18200
O1098       O  0.02828327  0.78578405  0.04774040    -0.64000
H1099       H  0.06100380  0.79016150  0.07065274     0.16700
C1100       C  0.08994019  0.83122973  0.08877195     0.28900
C1101       C  0.10735751  0.83513117  0.10062792    -0.24900
C1102       C  0.12629586  0.82617134  0.09565399    -0.24200
C1103       C  0.12761974  0.81277646  0.07886954     0.40400
C1104       C  0.11023816  0.80916002  0.06676565    -0.26700
O1105       O  0.07174493  0.84067100  0.09357644    -0.58600
H1106       H  0.10616592  0.84542582  0.11356955     0.16000
O1107       O  0.14612111  0.80441077  0.07331247    -0.60000
H1108       H  0.11158059  0.79962802  0.05327642     0.14500
H1109       H  0.01718017  0.79188464  0.05616294     0.46300
H1110       H  0.06417532  0.83064440  0.10211725     0.41700
H1111       H  0.14608783  0.79043190  0.07922262     0.45200
H1112       H  0.08175146  0.85860890  0.04787836     0.36600
C1113       C  0.93560149  0.15502162  0.11809804    -0.27600
C1114       C  0.93060547  0.16854292  0.10215060     0.02000
C1115       C  0.91123184  0.17820135  0.10206653     0.30100
C1116       C  0.89681896  0.17339527  0.11722246    -0.19400
C1117       C  0.90146463  0.15889633  0.13232059    -0.28800
C1118       C  0.92116084  0.15011411  0.13307106     0.44100
C1119       C  0.94454333  0.17005398  0.08435651     0.05300
O1120       O  0.90555767  0.19073647  0.08618587    -0.57300
H1121       H  0.88158628  0.18005194  0.11645814     0.18200
O1122       O  0.92616970  0.13608086  0.14788055    -0.64000
H1123       H  0.95047312  0.14756179  0.11840646     0.16700
C1124       C  0.95116914  0.18899118  0.07653604     0.28900
C1125       C  0.96305983  0.18961858  0.05870060    -0.24900
C1126       C  0.96891542  0.17147021  0.04865325    -0.24200
C1127       C  0.96286897  0.15249704  0.05707947     0.40400
C1128       C  0.95077904  0.15196028  0.07468184    -0.26700
O1129       O  0.94624285  0.20693491  0.08623862    -0.58600
H1130       H  0.96781295  0.20438063  0.05283688     0.16000
O1131       O  0.96881839  0.13430721  0.04845295    -0.60000
H1132       H  0.94591563  0.13724587  0.08060806     0.14500
H1133       H  0.92975674  0.14428946  0.16011591     0.46300
H1134       H  0.95624037  0.20814197  0.09761382     0.41700
H1135       H  0.95714493  0.13010323  0.03967679     0.45200
H1136       H  0.90474285  0.20467025  0.09212838     0.36600
C1137       C  0.95810362  0.06347726  0.16708063    -0.27600
C1138       C  0.94538354  0.06425137  0.18434676     0.02000
C1139       C  0.94907080  0.05100894  0.20088146     0.30100
C1140       C  0.96483747  0.03644888  0.19954722    -0.19400
C1141       C  0.97696131  0.03496865  0.18177908    -0.28800
C1142       C  0.97386064  0.04909443  0.16573603     0.44100
C1143       C  0.92734671  0.07781710  0.18374994     0.05300
O1144       O  0.93652094  0.05129123  0.21773814    -0.59700
H1145       H  0.96701863  0.02578388  0.21206437     0.18200
O1146       O  0.98586133  0.04875804  0.14847488    -0.64000
H1147       H  0.95545654  0.07380553  0.15435599     0.16700
C1148       C  0.92622773  0.09566177  0.19569087     0.28900
C1149       C  0.91056543  0.10992808  0.19206127    -0.24900
C1150       C  0.89611345  0.10657979  0.17646386    -0.24200
C1151       C  0.89651462  0.08802639  0.16552520     0.40400
C1152       C  0.91209176  0.07382957  0.16922757    -0.26700
O1153       O  0.94087257  0.09973095  0.21019028    -0.58600
H1154       H  0.91046240  0.12413741  0.20057665     0.16000
O1155       O  0.88160023  0.08358172  0.15135874    -0.60000
H1156       H  0.91269325  0.05992968  0.16021229     0.14500
H1157       H  0.99790839  0.05741256  0.15178128     0.46300
H1158       H  0.95218910  0.10656582  0.20267298     0.41700
H1159       H  0.88876359  0.08269896  0.13797899     0.45200
H1160       H  0.94402289  0.05946040  0.22808819     0.36600
C1161       C  0.81265694  0.06927545  0.07237157    -0.27600
C1162       C  0.83174712  0.07083779  0.08212309     0.02000
C1163       C  0.84755236  0.05711001  0.07703044     0.30100
C1164       C  0.84435505  0.04236234  0.06194944    -0.19400
C1165       C  0.82545641  0.04101390  0.05164605    -0.28800
C1166       C  0.80940625  0.05446227  0.05720669     0.44100
C1167       C  0.83560339  0.08726205  0.09706548     0.05300
O1168       O  0.86606832  0.05780005  0.08703749    -0.57300
H1169       H  0.85680622  0.03197545  0.05829185     0.18200
O1170       O  0.79085343  0.05393002  0.04731191    -0.64000
H1171       H  0.80043147  0.07986572  0.07619487     0.16700
C1172       C  0.84995182  0.10269090  0.09257533     0.28900
C1173       C  0.85585011  0.11645474  0.10775244    -0.24900
C1174       C  0.84736195  0.11528254  0.12742649    -0.24200
C1175       C  0.83218127  0.10053139  0.13166471     0.40400
C1176       C  0.82631638  0.08663680  0.11642795    -0.26700
O1177       O  0.85888166  0.10391185  0.07359629    -0.58600
H1178       H  0.86747755  0.12780259  0.10429569     0.16000
O1179       O  0.82388152  0.09883816  0.15088904    -0.60000
H1180       H  0.81526864  0.07477392  0.12000392     0.14500
H1181       H  0.78186064  0.04541012  0.05611548     0.46300
H1182       H  0.84893833  0.11161805  0.06505565     0.41700
H1183       H  0.83266297  0.08874940  0.15812121     0.45200
H1184       H  0.87564554  0.06464388  0.07741918     0.36600
C1185       C  0.17117915  0.07623622  0.92938031    -0.27600
C1186       C  0.18405054  0.07588358  0.91223152     0.02000
C1187       C  0.20012823  0.06159320  0.91109779     0.30100
C1188       C  0.20300746  0.04756508  0.92704230    -0.19400
C1189       C  0.18968814  0.04745455  0.94396333    -0.28800
C1190       C  0.17391635  0.06221254  0.94522729     0.44100
C1191       C  0.17969178  0.08998919  0.89529196     0.05300
O1192       O  0.21266750  0.06086954  0.89424507    -0.57300
H1193       H  0.21513051  0.03626426  0.92579470     0.18200
O1194       O  0.16096408  0.06295291  0.96178359    -0.64000
H1195       H  0.15879794  0.08729956  0.93033138     0.16700
C1196       C  0.16208046  0.08713981  0.88329053     0.28900
C1197       C  0.15645855  0.10192928  0.86900526    -0.24900
C1198       C  0.16788536  0.12001804  0.86682599    -0.24200
C1199       C  0.18605759  0.12247628  0.87837063     0.40400
C1200       C  0.19194853  0.10733133  0.89235929    -0.26700
O1201       O  0.14978517  0.07033284  0.88606028    -0.58600
H1202       H  0.14278455  0.09937047  0.85994457     0.16000
O1203       O  0.19758271  0.13996258  0.87697240    -0.60000
H1204       H  0.20550101  0.10961109  0.90169251     0.14500
H1205       H  0.16782959  0.07210263  0.97174936     0.46300
H1206       H  0.15578723  0.05957517  0.87718838     0.41700
H1207       H  0.19113655  0.14972671  0.88665094     0.45200
H1208       H  0.20599303  0.05105534  0.88479499     0.36600
C1209       C  0.11129586  0.16534257  0.91028684    -0.27600
C1210       C  0.09324486  0.17651799  0.90682052     0.02000
C1211       C  0.08983366  0.18554122  0.88753626     0.30100
C1212       C  0.10382606  0.18219821  0.87160956    -0.19400
C1213       C  0.12107338  0.16975771  0.87476577    -0.28800
C1214       C  0.12519575  0.16196141  0.89440925     0.44100
C1215       C  0.07709204  0.17664467  0.92264023     0.05300
O1216       O  0.07232205  0.19661531  0.88381179    -0.57300
H1217       H  0.10058942  0.18827514  0.85651621     0.18200
O1218       O  0.14235993  0.15032694  0.89803680    -0.64000
H1219       H  0.11417484  0.15854545  0.92514801     0.16700
C1220       C  0.06825829  0.15812221  0.92914226     0.28900
C1221       C  0.05273898  0.15822170  0.94384926    -0.24900
C1222       C  0.04563871  0.17667723  0.95234367    -0.24200
C1223       C  0.05449958  0.19529183  0.94567959     0.40400
C1224       C  0.07009596  0.19513275  0.93091247    -0.26700
O1225       O  0.07467475  0.13978695  0.92115219    -0.58600
H1226       H  0.04633258  0.14370118  0.94865307     0.16000
O1227       O  0.04851007  0.21367817  0.95383374    -0.60000
H1228       H  0.07686880  0.20946257  0.92601643     0.14500
H1229       H  0.15371431  0.16028833  0.89966569     0.46300
H1230       H  0.06739571  0.13848572  0.90789128     0.41700
H1231       H  0.03811030  0.21915134  0.94418455     0.45200
H1232       H  0.06190655  0.18639480  0.87960274     0.36600
C1233       C  0.08229714  0.11025999  0.81877607    -0.27600
C1234       C  0.08983850  0.09122385  0.81231580     0.02000
C1235       C  0.11111455  0.08838608  0.80986237     0.30100
C1236       C  0.12462334  0.10445202  0.81423558    -0.19400
C1237       C  0.11707140  0.12321682  0.82141501    -0.28800
C1238       C  0.09582108  0.12615595  0.82356245     0.44100
C1239       C  0.07559609  0.07375806  0.81110517     0.05300
O1240       O  0.11882731  0.06977887  0.80392921    -0.57300
H1241       H  0.14103780  0.10196900  0.81299417     0.18200
O1242       O  0.08820729  0.14434910  0.83077966    -0.64000
H1243       H  0.06595234  0.11244552  0.82103237     0.16700
C1244       C  0.07127956  0.06238391  0.82880484     0.28900
C1245       C  0.05673766  0.04671785  0.82820811    -0.24900
C1246       C  0.04597128  0.04221426  0.81008901    -0.24200
C1247       C  0.05068924  0.05347421  0.79216750     0.40400
C1248       C  0.06548217  0.06908809  0.79279441    -0.26700
O1249       O  0.08111012  0.06664388  0.84686691    -0.58600
H1250       H  0.05359323  0.03838262  0.84219691     0.16000
O1251       O  0.04080474  0.04961199  0.77405862    -0.60000
H1252       H  0.06873622  0.07785824  0.77909172     0.14500
H1253       H  0.08762223  0.14271741  0.84586218     0.46300
H1254       H  0.07268691  0.07741842  0.85349470     0.41700
H1255       H  0.02967207  0.05995335  0.77325301     0.45200
H1256       H  0.12070873  0.06194534  0.81680315     0.36600
C1257       C  0.21420245  0.05949973  0.06145566    -0.27600
C1258       C  0.19966743  0.07536724  0.06150554     0.02000
C1259       C  0.18578766  0.07715584  0.04513119     0.30100
C1260       C  0.18600906  0.06270664  0.02937774    -0.19400
C1261       C  0.20014586  0.04645787  0.02952740    -0.28800
C1262       C  0.21469667  0.04522317  0.04542908     0.44100
C1263       C  0.19733149  0.08865898  0.07961763     0.05300
O1264       O  0.17145621  0.09256439  0.04479684    -0.57300
H1265       H  0.17480714  0.06396386  0.01717775     0.18200
O1266       O  0.22839340  0.02929594  0.04625110    -0.64000
H1267       H  0.22478566  0.05787360  0.07414243     0.16700
C1268       C  0.18774740  0.08101731  0.09734579     0.28900
C1269       C  0.18230365  0.09435954  0.11314627    -0.24900
C1270       C  0.18678199  0.11526391  0.11171479    -0.24200
C1271       C  0.19720573  0.12281135  0.09443352     0.40400
C1272       C  0.20235542  0.10950397  0.07842449    -0.26700
O1273       O  0.18222136  0.06081791  0.09864091    -0.58600
H1274       H  0.17385618  0.08853191  0.12620939     0.16000
O1275       O  0.20134493  0.14330540  0.09255986    -0.60000
H1276       H  0.20953185  0.11555624  0.06473770     0.14500
H1277       H  0.24130995  0.03479165  0.04038481     0.46300
H1278       H  0.19404148  0.05390423  0.10526854     0.41700
H1279       H  0.18862044  0.14947128  0.08692408     0.45200
H1280       H  0.15939899  0.08704384  0.05225406     0.36600
C1281       C  0.08182799  0.06079273  0.18581614    -0.27600
C1282       C  0.09074107  0.06440293  0.16663406     0.02000
C1283       C  0.08614578  0.05140562  0.15015615     0.30100
C1284       C  0.07216874  0.03544987  0.15280853    -0.19400
C1285       C  0.06256885  0.03218976  0.17180157    -0.28800
C1286       C  0.06783844  0.04478060  0.18852019     0.44100
C1287       C  0.10469234  0.08189016  0.16380310     0.05300
O1288       O  0.09567724  0.05391225  0.13157475    -0.57300
H1289       H  0.06873130  0.02570100  0.13985939     0.18200
O1290       O  0.05868038  0.04227907  0.20725779    -0.64000
H1291       H  0.08538219  0.07071700  0.19860086     0.16700
C1292       C  0.09987920  0.09752883  0.14978142     0.28900
C1293       C  0.11406967  0.11303339  0.14592699    -0.24900
C1294       C  0.13298001  0.11333937  0.15616039    -0.24200
C1295       C  0.13746344  0.09817101  0.17079617     0.40400
C1296       C  0.12326072  0.08259983  0.17462415    -0.26700
O1297       O  0.08151928  0.09754238  0.13949734    -0.58600
H1298       H  0.11042347  0.12472022  0.13471344     0.16000
O1299       O  0.15602686  0.09787357  0.18069341    -0.60000
H1300       H  0.12705363  0.07062930  0.18547298     0.14500
H1301       H  0.06845655  0.03387782  0.21532621     0.46300
H1302       H  0.07170430  0.10453413  0.14876450     0.41700
H1303       H  0.16561151  0.09096528  0.17112113     0.45200
H1304       H  0.08494150  0.05927883  0.12223413     0.36600
C1305       C  0.08363830  0.18788402  0.05335840    -0.27600
C1306       C  0.08792813  0.16935372  0.06329747     0.02000
C1307       C  0.07519421  0.15234247  0.05991721     0.30100
C1308       C  0.05834454  0.15403767  0.04680536    -0.19400
C1309       C  0.05396334  0.17254261  0.03669227    -0.28800
C1310       C  0.06692226  0.18952500  0.03995758     0.44100
C1311       C  0.10546253  0.16786805  0.07752830     0.05300
O1312       O  0.07863084  0.13425340  0.07005560    -0.57300
H1313       H  0.04857638  0.14079681  0.04471767     0.18200
O1314       O  0.06356938  0.20771417  0.03002825    -0.64000
H1315       H  0.09343498  0.20103688  0.05583218     0.16700
C1316       C  0.12178769  0.15434943  0.07356149     0.28900
C1317       C  0.13695182  0.15125955  0.08832615    -0.24900
C1318       C  0.13613015  0.16147781  0.10721009    -0.24200
C1319       C  0.12043087  0.17590816  0.11070767     0.40400
C1320       C  0.10522158  0.17903046  0.09584969    -0.26700
O1321       O  0.12261083  0.14348902  0.05562978    -0.58600
H1322       H  0.14905846  0.14029086  0.08525325     0.16000
O1323       O  0.11876691  0.18565273  0.12920227    -0.60000
H1324       H  0.09266369  0.18944421  0.09904539     0.14500
H1325       H  0.07142700  0.20665765  0.01706184     0.46300
H1326       H  0.12915883  0.15283091  0.04560289     0.41700
H1327       H  0.12424138  0.19960551  0.12682039     0.45200
H1328       H  0.08439178  0.12482073  0.05964541     0.36600
C1329       C  0.19735496  0.82329709  0.79319056    -0.27600
C1330       C  0.19604365  0.80195423  0.79376310     0.02000
C1331       C  0.18148857  0.79257420  0.80650906     0.30100
C1332       C  0.16822418  0.80453017  0.81836637    -0.19400
C1333       C  0.16906395  0.82608287  0.81767953    -0.28800
C1334       C  0.18400305  0.83534369  0.80487548     0.44100
C1335       C  0.21070982  0.78945593  0.78195933     0.05300
O1336       O  0.18087123  0.77165487  0.80825845    -0.57300
H1337       H  0.15756272  0.79648816  0.82803967     0.18200
O1338       O  0.18592002  0.85624404  0.80399999    -0.64000
H1339       H  0.20877456  0.83065049  0.78361783     0.16700
C1340       C  0.20403087  0.77635505  0.76637544     0.28900
C1341       C  0.21812513  0.76370582  0.75632051    -0.24900
C1342       C  0.23905765  0.76299244  0.76217833    -0.24200
C1343       C  0.24567846  0.77746602  0.77705193     0.40400
C1344       C  0.23156273  0.79037425  0.78672720    -0.26700
O1345       O  0.18386233  0.77649010  0.76028419    -0.58600
H1346       H  0.21237957  0.75484498  0.74363489     0.16000
O1347       O  0.26605027  0.77932182  0.78203705    -0.60000
H1348       H  0.23691361  0.80090306  0.79835840     0.14500
H1349       H  0.18001705  0.86032002  0.79061241     0.46300
H1350       H  0.17820072  0.76310502  0.76467196     0.41700
H1351       H  0.26713575  0.77571481  0.79674887     0.45200
H1352       H  0.16792693  0.76742893  0.80149499     0.36600
C1353       C  0.79905665  0.76557211  0.21839427    -0.27600
C1354       C  0.79381333  0.78624246  0.21739349     0.02000
C1355       C  0.77570449  0.79305531  0.22678761     0.30100
C1356       C  0.76303129  0.77912046  0.23707248    -0.19400
C1357       C  0.76851476  0.75820816  0.23906747    -0.28800
C1358       C  0.78658880  0.75160491  0.22876575     0.44100
C1359       C  0.80685573  0.80019380  0.20534055     0.05300
O1360       O  0.76973160  0.81312066  0.22505954    -0.57300
H1361       H  0.74864434  0.78490569  0.24294259     0.18200
O1362       O  0.79254767  0.73150077  0.22916550    -0.64000
H1363       H  0.81288793  0.76015722  0.21089921     0.16700
C1364       C  0.81870368  0.81535078  0.21482132     0.28900
C1365       C  0.83174154  0.82769049  0.20306642    -0.24900
C1366       C  0.83310573  0.82530531  0.18160437    -0.24200
C1367       C  0.82082295  0.81008087  0.17227744     0.40400
C1368       C  0.80798517  0.79768787  0.18412888    -0.26700
O1369       O  0.81817521  0.81771664  0.23568007    -0.58600
H1370       H  0.84036950  0.83912418  0.21116916     0.16000
O1371       O  0.82093793  0.80749176  0.15143395    -0.60000
H1372       H  0.79880223  0.78604713  0.17669765     0.14500
H1373       H  0.79073800  0.72649843  0.21495233     0.46300
H1374       H  0.81005392  0.83033338  0.23808412     0.41700
H1375       H  0.82849517  0.79453297  0.14900538     0.45200
H1376       H  0.77233649  0.81924253  0.23868978     0.36600
C1377       C  0.82366827  0.20280042  0.80710621    -0.27600
C1378       C  0.80278329  0.19955971  0.80344587     0.02000
C1379       C  0.79253106  0.18377307  0.81374208     0.30100
C1380       C  0.80323689  0.17110789  0.82731128    -0.19400
C1381       C  0.82440599  0.17396619  0.83106620    -0.28800
C1382       C  0.83446001  0.19027806  0.82081968     0.44100
C1383       C  0.79202025  0.21162110  0.78769705     0.05300
O1384       O  0.77218371  0.17998213  0.80987537    -0.57300
H1385       H  0.79465985  0.15885908  0.83422262     0.18200
O1386       O  0.85509391  0.19358513  0.82349855    -0.64000
H1387       H  0.83171699  0.21486304  0.79903022     0.16700
C1388       C  0.77972656  0.22841571  0.79293780     0.28900
C1389       C  0.76843390  0.23860356  0.77782133    -0.24900
C1390       C  0.76865493  0.23197102  0.75716013    -0.24200
C1391       C  0.78252727  0.21594751  0.75202244     0.40400
C1392       C  0.79361300  0.20572892  0.76724861    -0.26700
O1393       O  0.77852415  0.23489756  0.81285598    -0.58600
H1394       H  0.75991977  0.25198816  0.78251665     0.16000
O1395       O  0.78446744  0.20935463  0.73221427    -0.60000
H1396       H  0.80333611  0.19292300  0.76307487     0.14500
H1397       H  0.85606869  0.20607004  0.83205460     0.46300
H1398       H  0.78981162  0.24494778  0.81441328     0.41700
H1399       H  0.79851723  0.21339597  0.72795709     0.45200
H1400       H  0.76453690  0.18835072  0.81998679     0.36600
C1401       C  0.21003807  0.21405933  0.75695207    -0.27600
C1402       C  0.21273146  0.21246174  0.77804594     0.02000
C1403       C  0.22952123  0.22188015  0.78745593     0.30100
C1404       C  0.24327614  0.23328755  0.77576452    -0.19400
C1405       C  0.24018876  0.23628841  0.75453892    -0.28800
C1406       C  0.22351627  0.22576871  0.74516711     0.44100
C1407       C  0.19805447  0.20064557  0.79019880     0.05300
O1408       O  0.23307620  0.21924330  0.80798645    -0.57300
H1409       H  0.25666307  0.23909125  0.78354227     0.18200
O1410       O  0.22033203  0.22682895  0.72442515    -0.64000
H1411       H  0.19727419  0.20637914  0.74961442     0.16700
C1412       C  0.18393676  0.21060481  0.80293149     0.28900
C1413       C  0.17060758  0.19914724  0.81510461    -0.24900
C1414       C  0.17136363  0.17757115  0.81503015    -0.24200
C1415       C  0.18508171  0.16777395  0.80132949     0.40400
C1416       C  0.19837601  0.17932444  0.78920708    -0.26700
O1417       O  0.18276641  0.23157165  0.80316744    -0.58600
H1418       H  0.15981780  0.20755492  0.82432565     0.16000
O1419       O  0.18607281  0.14683226  0.80017654    -0.60000
H1420       H  0.20916955  0.17161754  0.77919668     0.14500
H1421       H  0.20739404  0.23464140  0.72258265     0.46300
H1422       H  0.18970219  0.23581450  0.81597965     0.41700
H1423       H  0.17813096  0.14314548  0.78777781     0.45200
H1424       H  0.22863179  0.23221031  0.81449946     0.36600
C1425       C  0.18544467  0.78910227  0.17249564    -0.27600
C1426       C  0.20677914  0.78743421  0.17128215     0.02000
C1427       C  0.21746052  0.79759862  0.15566219     0.30100
C1428       C  0.20683407  0.81012954  0.14191315    -0.19400
C1429       C  0.18542808  0.81295708  0.14370214    -0.28800
C1430       C  0.17473621  0.80159388  0.15882151     0.44100
C1431       C  0.21791697  0.77587303  0.18703843     0.05300
O1432       O  0.23831248  0.79521736  0.15367704    -0.57300
H1433       H  0.21575185  0.81767333  0.13026611     0.18200
O1434       O  0.15385869  0.80348880  0.16106489    -0.64000
H1435       H  0.17712773  0.78115977  0.18447586     0.16700
C1436       C  0.22896915  0.78617370  0.20221699     0.28900
C1437       C  0.23974336  0.77509390  0.21698962    -0.24900
C1438       C  0.24058036  0.75346337  0.21649345    -0.24200
C1439       C  0.22810186  0.74333129  0.20174566     0.40400
C1440       C  0.21702779  0.75456387  0.18723466    -0.26700
O1441       O  0.22861191  0.80714205  0.20319624    -0.58600
H1442       H  0.24698673  0.78378266  0.22900408     0.16000
O1443       O  0.22655028  0.72238273  0.20151701    -0.60000
H1444       H  0.20789971  0.74657820  0.17592131     0.14500
H1445       H  0.14797962  0.79105241  0.15467923     0.46300
H1446       H  0.24209478  0.81162910  0.19775108     0.41700
H1447       H  0.23272641  0.71788164  0.18838966     0.45200
H1448       H  0.24438355  0.80796323  0.15921738     0.36600
C1449       C  0.81039058  0.21028582  0.24077915    -0.27600
C1450       C  0.80365560  0.19906230  0.22393925     0.02000
C1451       C  0.78303782  0.19989929  0.21806073     0.30100
C1452       C  0.76952833  0.21270270  0.22847841    -0.19400
C1453       C  0.77628616  0.22561610  0.24447167    -0.28800
C1454       C  0.79684733  0.22292288  0.25154771     0.44100
C1455       C  0.81846120  0.18729562  0.21185758     0.05300
O1456       O  0.77607576  0.18865295  0.20177452    -0.57300
H1457       H  0.75374855  0.21326970  0.22337010     0.18200
O1458       O  0.80390644  0.23184008  0.26917411    -0.64000
H1459       H  0.82622531  0.20906217  0.24574530     0.16700
C1460       C  0.83190362  0.19745128  0.19858408     0.28900
C1461       C  0.84514535  0.18623809  0.18615324    -0.24900
C1462       C  0.84524767  0.16463926  0.18664640    -0.24200
C1463       C  0.83157291  0.15459471  0.20020644     0.40400
C1464       C  0.81831182  0.16594857  0.21262374    -0.26700
O1465       O  0.83178549  0.21840866  0.19724053    -0.58600
H1466       H  0.85455430  0.19490987  0.17577419     0.16000
O1467       O  0.83046718  0.13363359  0.20079092    -0.60000
H1468       H  0.80768075  0.15807696  0.22267281     0.14500
H1469       H  0.80454537  0.22068422  0.27945326     0.46300
H1470       H  0.82108783  0.22170832  0.18694862     0.41700
H1471       H  0.83693503  0.12958887  0.21392830     0.45200
H1472       H  0.77764746  0.19773159  0.18970215     0.36600
C1473       C  0.21194140  0.19733309  0.16967305    -0.27600
C1474       C  0.21049538  0.19638949  0.19103205     0.02000
C1475       C  0.19750558  0.18184571  0.20008368     0.30100
C1476       C  0.18569050  0.16889930  0.18786882    -0.19400
C1477       C  0.18656655  0.16996805  0.16629297    -0.28800
C1478       C  0.20016826  0.18432941  0.15734154     0.44100
C1479       C  0.22239133  0.21072488  0.20387096     0.05300
O1480       O  0.19641429  0.17998132  0.22097560    -0.57300
H1481       H  0.17628106  0.15795256  0.19579881     0.18200
O1482       O  0.20240014  0.18544208  0.13648192    -0.64000
H1483       H  0.22208125  0.20835840  0.16251003     0.16700
C1484       C  0.24387316  0.21129746  0.20295747     0.28900
C1485       C  0.25472110  0.22476602  0.21547802    -0.24900
C1486       C  0.24464096  0.23848819  0.22895700    -0.24200
C1487       C  0.22284837  0.23684632  0.23052429     0.40400
C1488       C  0.21211927  0.22330540  0.21783017    -0.26700
O1489       O  0.25447137  0.19849546  0.19010252    -0.58600
H1490       H  0.27132107  0.22473660  0.21443114     0.16000
O1491       O  0.21191820  0.24670329  0.24553909    -0.60000
H1492       H  0.19555310  0.22237890  0.21917113     0.14500
H1493       H  0.19511197  0.19810535  0.13230086     0.46300
H1494       H  0.25645976  0.18568051  0.19800393     0.41700
H1495       H  0.20163275  0.25531398  0.23834449     0.45200
H1496       H  0.20801682  0.17089463  0.22477077     0.36600
C1497       C  0.18126348  0.39725576  0.39681597    -0.27600
C1498       C  0.18583437  0.41794547  0.39337686     0.02000
C1499       C  0.18684885  0.42536100  0.37313535     0.30100
C1500       C  0.18214546  0.41238229  0.35674585    -0.19400
C1501       C  0.17655697  0.39201977  0.36035635    -0.28800
C1502       C  0.17677491  0.38427699  0.38043449     0.44100
C1503       C  0.18790182  0.43197442  0.41101416     0.05300
O1504       O  0.19146639  0.44547272  0.36930919    -0.57300
H1505       H  0.18202098  0.41842753  0.34130470     0.18200
O1506       O  0.17153457  0.36431943  0.38427095    -0.64000
H1507       H  0.18060058  0.39133060  0.41229666     0.16700
C1508       C  0.17125158  0.43521739  0.42436651     0.28900
C1509       C  0.17306653  0.44904384  0.44058571    -0.24900
C1510       C  0.19138897  0.45996559  0.44381062    -0.24200
C1511       C  0.20814014  0.45649603  0.43045083     0.40400
C1512       C  0.20627922  0.44260481  0.41423976    -0.26700
O1513       O  0.15297314  0.42522106  0.42143625    -0.58600
H1514       H  0.15993431  0.45139560  0.45049965     0.16000
O1515       O  0.22633168  0.46675955  0.43284498    -0.60000
H1516       H  0.21919328  0.44021935  0.40404667     0.14500
H1517       H  0.18435676  0.35639134  0.38216552     0.46300
H1518       H  0.14512591  0.43394554  0.41177501     0.41700
H1519       H  0.22496961  0.47925914  0.42432720     0.45200
H1520       H  0.17806431  0.45269975  0.36932651     0.36600
C1521       C  0.23471724  0.28820177  0.28429444    -0.27600
C1522       C  0.22091889  0.29964045  0.27252688     0.02000
C1523       C  0.22098629  0.29747634  0.25123230     0.30100
C1524       C  0.23364453  0.28281497  0.24213153    -0.19400
C1525       C  0.24603134  0.26941058  0.25395111    -0.28800
C1526       C  0.24757643  0.27351475  0.27529166     0.44100
C1527       C  0.20585121  0.31294564  0.28289696     0.05300
O1528       O  0.20826084  0.30915016  0.23923350    -0.57300
H1529       H  0.23296157  0.28112092  0.22566156     0.18200
O1530       O  0.26266679  0.26481941  0.28714967    -0.64000
H1531       H  0.23555368  0.29074763  0.30066084     0.16700
C1532       C  0.19114515  0.30429634  0.29598351     0.28900
C1533       C  0.17773170  0.31683628  0.30694455    -0.24900
C1534       C  0.17858645  0.33835093  0.30515980    -0.24200
C1535       C  0.19296398  0.34685454  0.29124858     0.40400
C1536       C  0.20634309  0.33417321  0.28020506    -0.26700
O1537       O  0.18996775  0.28347067  0.29842051    -0.58600
H1538       H  0.16711422  0.30921015  0.31697039     0.16000
O1539       O  0.19413337  0.36763342  0.28845275    -0.60000
H1540       H  0.21749943  0.34096753  0.26994165     0.14500
H1541       H  0.25578985  0.25920188  0.29948525     0.46300
H1542       H  0.18183111  0.27854798  0.28658776     0.41700
H1543       H  0.20639269  0.37205424  0.29627606     0.45200
H1544       H  0.19580454  0.30068747  0.23715898     0.36600
C1545       C  0.20997474  0.57728630  0.54758640    -0.27600
C1546       C  0.19179645  0.58050554  0.55864330     0.02000
C1547       C  0.17466546  0.56804033  0.55486957     0.30100
C1548       C  0.17568979  0.55275112  0.54006894    -0.19400
C1549       C  0.19376852  0.54937701  0.52878565    -0.28800
C1550       C  0.21102766  0.56193498  0.53259914     0.44100
C1551       C  0.19039120  0.59668457  0.57431870     0.05300
O1552       O  0.15681600  0.57061851  0.56574495    -0.57300
H1553       H  0.16221875  0.54336284  0.53761604     0.18200
O1554       O  0.22893378  0.55942731  0.52182509    -0.64000
H1555       H  0.22325873  0.58683370  0.55042639     0.16700
C1556       C  0.20097057  0.59489989  0.59300569     0.28900
C1557       C  0.19638362  0.60826545  0.60913050    -0.24900
C1558       C  0.18100722  0.62315448  0.60689593    -0.24200
C1559       C  0.17122456  0.62560035  0.58785528     0.40400
C1560       C  0.17609222  0.61251187  0.57166435    -0.26700
O1561       O  0.21483541  0.57938155  0.59604676    -0.58600
H1562       H  0.20385112  0.60612661  0.62379190     0.16000
O1563       O  0.15679249  0.64066265  0.58501894    -0.60000
H1564       H  0.16794381  0.61406260  0.55728819     0.14500
H1565       H  0.22795757  0.56915987  0.51020867     0.46300
H1566       H  0.20665490  0.56781036  0.60152417     0.41700
H1567       H  0.14338978  0.63349598  0.58435082     0.45200
H1568       H  0.15819795  0.56153246  0.57783438     0.36600
C1569       C  0.20569389  0.69966331  0.67688625    -0.27600
C1570       C  0.21279528  0.69176558  0.69556988     0.02000
C1571       C  0.20823559  0.67135003  0.70062645     0.30100
C1572       C  0.19577109  0.65964502  0.68776183    -0.19400
C1573       C  0.18747863  0.66788748  0.66956928    -0.28800
C1574       C  0.19377601  0.68776091  0.66368401     0.44100
C1575       C  0.22463934  0.70506426  0.70970519     0.05300
O1576       O  0.21606217  0.66256494  0.71803561    -0.57300
H1577       H  0.19319799  0.64389541  0.69203073     0.18200
O1578       O  0.18823667  0.69589333  0.64513713    -0.64000
H1579       H  0.20924998  0.71525381  0.67251463     0.16700
C1580       C  0.24093279  0.71719085  0.70255145     0.28900
C1581       C  0.25050564  0.73109358  0.71561817    -0.24900
C1582       C  0.24440855  0.73329368  0.73633335    -0.24200
C1583       C  0.22951016  0.71931700  0.74383752     0.40400
C1584       C  0.21931775  0.70604684  0.73047742    -0.26700
O1585       O  0.24783351  0.71544704  0.68278683    -0.58600
H1586       H  0.26325336  0.73959736  0.70933976     0.16000
O1587       O  0.22400263  0.71926968  0.76410488    -0.60000
H1588       H  0.20695664  0.69667916  0.73640847     0.14500
H1589       H  0.19899247  0.69127953  0.63542700     0.46300
H1590       H  0.25824060  0.70436037  0.68315378     0.41700
H1591       H  0.23073077  0.70700596  0.77004400     0.45200
H1592       H  0.22943983  0.65661307  0.71386297     0.36600
C1593       C  0.19490489  0.56410113  0.41182209    -0.27600
C1594       C  0.17647106  0.57524780  0.41197979     0.02000
C1595       C  0.16214228  0.57181516  0.42775726     0.30100
C1596       C  0.16610178  0.55711719  0.44276515    -0.19400
C1597       C  0.18446471  0.54580760  0.44262003    -0.28800
C1598       C  0.19897699  0.54947087  0.42699061     0.44100
C1599       C  0.17190358  0.59016913  0.39553243     0.05300
O1600       O  0.14420542  0.58282101  0.42867987    -0.57300
H1601       H  0.15480752  0.55473623  0.45471716     0.18200
O1602       O  0.21697801  0.53859217  0.42611902    -0.64000
H1603       H  0.20598717  0.56645090  0.39967581     0.16700
C1604       C  0.18503063  0.60677328  0.39146705     0.28900
C1605       C  0.17911018  0.62183778  0.37738761    -0.24900
C1606       C  0.16036331  0.62034675  0.36683843    -0.24200
C1607       C  0.14798184  0.60290185  0.36990778     0.40400
C1608       C  0.15366553  0.58817982  0.38433072    -0.26700
O1609       O  0.20306063  0.60904057  0.40205363    -0.58600
H1610       H  0.18891869  0.63503992  0.37524449     0.16000
O1611       O  0.13033864  0.59992845  0.35886928    -0.60000
H1612       H  0.14371513  0.57514044  0.38686935     0.14500
H1613       H  0.21368785  0.52613732  0.41811557     0.46300
H1614       H  0.21397321  0.60448017  0.39248712     0.41700
H1615       H  0.13480534  0.59303357  0.34610820     0.45200
H1616       H  0.14782893  0.59569773  0.43582376     0.36600
C1617       C  0.20835293  0.73072566  0.26991755    -0.27600
C1618       C  0.20743700  0.70939747  0.27019958     0.02000
C1619       C  0.21961829  0.69810071  0.25657726     0.30100
C1620       C  0.23359497  0.70812028  0.24381758    -0.19400
C1621       C  0.23637947  0.72953287  0.24487641    -0.28800
C1622       C  0.22226871  0.74083510  0.25713774     0.44100
C1623       C  0.19442892  0.69892898  0.28538473     0.05300
O1624       O  0.21758365  0.67723592  0.25536053    -0.57300
H1625       H  0.24214439  0.69883019  0.23313083     0.18200
O1626       O  0.22294778  0.76180310  0.25781278    -0.64000
H1627       H  0.19865321  0.73957870  0.28008565     0.16700
C1628       C  0.20346900  0.68686794  0.30067818     0.28900
C1629       C  0.19112670  0.67628051  0.31456587    -0.24900
C1630       C  0.16950797  0.67713225  0.31332210    -0.24200
C1631       C  0.16062817  0.69059063  0.29878694     0.40400
C1632       C  0.17306303  0.70116434  0.28484765    -0.26700
O1633       O  0.22445167  0.68605175  0.30265252    -0.58600
H1634       H  0.19894662  0.66786287  0.32639520     0.16000
O1635       O  0.13974233  0.69318041  0.29779011    -0.60000
H1636       H  0.16600267  0.71093214  0.27342985     0.14500
H1637       H  0.21070556  0.76649159  0.25008891     0.46300
H1638       H  0.22839427  0.67189122  0.29887068     0.41700
H1639       H  0.13687721  0.70578781  0.30572802     0.45200
H1640       H  0.23057848  0.67152901  0.26086152     0.36600
C1641       C  0.18535047  0.39954739  0.57029057    -0.27600
C1642       C  0.19990759  0.41420494  0.57602572     0.02000
C1643       C  0.20931577  0.41284483  0.59534004     0.30100
C1644       C  0.20306201  0.39764669  0.60918922    -0.19400
C1645       C  0.18736366  0.38389432  0.60393011    -0.28800
C1646       C  0.17898940  0.38450107  0.58408700     0.44100
C1647       C  0.20223826  0.43241371  0.56290490     0.05300
O1648       O  0.22355755  0.42707162  0.60127847    -0.57300
H1649       H  0.20968665  0.39727463  0.62439089     0.18200
O1650       O  0.16466962  0.37036672  0.57801924    -0.64000
H1651       H  0.17815481  0.40040233  0.55535976     0.16700
C1652       C  0.21800457  0.43407016  0.54828684     0.28900
C1653       C  0.21727696  0.44974523  0.53355510    -0.24900
C1654       C  0.20066195  0.46353416  0.53304922    -0.24200
C1655       C  0.18558606  0.46243174  0.54853374     0.40400
C1656       C  0.18652555  0.44701882  0.56329465    -0.26700
O1657       O  0.23371590  0.42008620  0.54786392    -0.58600
H1658       H  0.22912185  0.45046516  0.52192717     0.16000
O1659       O  0.16985002  0.47639309  0.54940776    -0.60000
H1660       H  0.17439727  0.44591905  0.57461808     0.14500
H1661       H  0.15152154  0.37797342  0.57693560     0.46300
H1662       H  0.22920323  0.40936701  0.53813344     0.41700
H1663       H  0.15768147  0.46919112  0.54382970     0.45200
H1664       H  0.23701021  0.42121612  0.59721451     0.36600
C1665       C  0.21411691  0.28700820  0.72031109    -0.27600
C1666       C  0.22445518  0.29477919  0.70330098     0.02000
C1667       C  0.24519058  0.29007072  0.70028145     0.30100
C1668       C  0.25494863  0.27635887  0.71343773    -0.19400
C1669       C  0.24397699  0.26606277  0.72903375    -0.28800
C1670       C  0.22382537  0.27332938  0.73358801     0.44100
C1671       C  0.21307524  0.30679458  0.68814215     0.05300
O1672       O  0.25579158  0.29814593  0.68402845    -0.57300
H1673       H  0.27086270  0.27263910  0.71050228     0.18200
O1674       O  0.21340934  0.26750101  0.75089186    -0.64000
H1675       H  0.19834394  0.29146763  0.72322613     0.16700
C1676       C  0.19897529  0.29711347  0.67518947     0.28900
C1677       C  0.18801297  0.30854168  0.66083751    -0.24900
C1678       C  0.19063112  0.32990195  0.65938380    -0.24200
C1679       C  0.20502365  0.33944696  0.67255618     0.40400
C1680       C  0.21613793  0.32786498  0.68671077    -0.26700
O1681       O  0.19599242  0.27636203  0.67632948    -0.58600
H1682       H  0.17722416  0.30035944  0.65145742     0.16000
O1683       O  0.20765585  0.36028097  0.67230202    -0.60000
H1684       H  0.22691650  0.33539062  0.69683446     0.14500
H1685       H  0.21350632  0.27962105  0.76000614     0.46300
H1686       H  0.18427012  0.27452582  0.68585353     0.41700
H1687       H  0.22094460  0.36258831  0.66524674     0.45200
H1688       H  0.25405167  0.28812819  0.67277486     0.36600
C1689       C  0.09106851  0.35507963  0.37760695    -0.27600
C1690       C  0.09585865  0.33969506  0.39181084     0.02000
C1691       C  0.11444051  0.32883950  0.38980556     0.30100
C1692       C  0.12818944  0.33393619  0.37411536    -0.19400
C1693       C  0.12370056  0.34991927  0.36040428    -0.28800
C1694       C  0.10478743  0.36023333  0.36203799     0.44100
C1695       C  0.08169200  0.33599821  0.40913126     0.05300
O1696       O  0.11956342  0.31369291  0.40343108    -0.57300
H1697       H  0.14269373  0.32585736  0.37310634     0.18200
O1698       O  0.09946836  0.37534455  0.34846605    -0.64000
H1699       H  0.07663967  0.36328783  0.37871895     0.16700
C1700       C  0.07551254  0.35236373  0.42167511     0.28900
C1701       C  0.06122159  0.34916855  0.43721762    -0.24900
C1702       C  0.05294827  0.32965271  0.44088247    -0.24200
C1703       C  0.05957555  0.31308349  0.42866212     0.40400
C1704       C  0.07377695  0.31637993  0.41284859    -0.26700
O1705       O  0.08333383  0.37164318  0.41882829    -0.58600
H1706       H  0.05671997  0.36212857  0.44652269     0.16000
O1707       O  0.05179845  0.29379986  0.43151264    -0.60000
H1708       H  0.07831588  0.30366790  0.40322153     0.14500
H1709       H  0.09243783  0.36818480  0.33708974     0.46300
H1710       H  0.09662530  0.37169646  0.42622896     0.41700
H1711       H  0.06217467  0.28654214  0.43993714     0.45200
H1712       H  0.12752010  0.32063985  0.41432699     0.36600
C1713       C  0.12488663  0.32180302  0.57323991    -0.27600
C1714       C  0.10609236  0.33229410  0.57318123     0.02000
C1715       C  0.10144655  0.34595747  0.58912950     0.30100
C1716       C  0.11581889  0.34948853  0.60457995    -0.19400
C1717       C  0.13491179  0.33957158  0.60433710    -0.28800
C1718       C  0.13935779  0.32544783  0.58866020     0.44100
C1719       C  0.09148178  0.32943252  0.55621686     0.05300
O1720       O  0.08271970  0.35560338  0.58985857    -0.57300
H1721       H  0.11214226  0.36023791  0.61666345     0.18200
O1722       O  0.15805010  0.31579031  0.58779570    -0.64000
H1723       H  0.12855575  0.31125909  0.56098478     0.16700
C1724       C  0.08736654  0.34556082  0.54259412     0.28900
C1725       C  0.07200216  0.34340784  0.52784774    -0.24900
C1726       C  0.06048357  0.32527867  0.52647396    -0.24200
C1727       C  0.06518840  0.30884617  0.53968423     0.40400
C1728       C  0.08070459  0.31098469  0.55437060    -0.26700
O1729       O  0.09850131  0.36336088  0.54347883    -0.58600
H1730       H  0.06892305  0.35611211  0.51762538     0.16000
O1731       O  0.05425436  0.29094938  0.53892606    -0.60000
H1732       H  0.08382209  0.29849571  0.56484048     0.14500
H1733       H  0.16731286  0.32554689  0.58072715     0.46300
H1734       H  0.08898494  0.37377521  0.54913989     0.41700
H1735       H  0.04274508  0.29284880  0.54869675     0.45200
H1736       H  0.08558493  0.37023580  0.58703329     0.36600
C1737       C  0.07193497  0.45034822  0.28434825    -0.27600
C1738       C  0.07388906  0.43444355  0.29870485     0.02000
C1739       C  0.05857548  0.43179078  0.31362296     0.30100
C1740       C  0.04191657  0.44524763  0.31448663    -0.19400
C1741       C  0.03999267  0.46144299  0.30046533    -0.28800
C1742       C  0.05501578  0.46375884  0.28506072     0.44100
C1743       C  0.09255277  0.42149913  0.29943968     0.05300
O1744       O  0.06050072  0.41684712  0.32827222    -0.57300
H1745       H  0.03062639  0.44323527  0.32651482     0.18200
O1746       O  0.05382269  0.47954213  0.27126465    -0.64000
H1747       H  0.08375630  0.45262107  0.27289694     0.16700
C1748       C  0.09162792  0.40055145  0.29455577     0.28900
C1749       C  0.10832640  0.38771968  0.29901637    -0.24900
C1750       C  0.12576046  0.39544413  0.30895288    -0.24200
C1751       C  0.12698350  0.41651182  0.31313440     0.40400
C1752       C  0.11055454  0.42945437  0.30809624    -0.26700
O1753       O  0.07422829  0.39245718  0.28595487    -0.58600
H1754       H  0.10711870  0.37148464  0.29590846     0.16000
O1755       O  0.14409393  0.42451302  0.32235197    -0.60000
H1756       H  0.11138888  0.44552699  0.31205096     0.14500
H1757       H  0.06097237  0.49116735  0.27789442     0.46300
H1758       H  0.06732919  0.38482777  0.29713584     0.41700
H1759       H  0.14027121  0.42633616  0.33693106     0.45200
H1760       H  0.05035605  0.40619859  0.32450387     0.36600
C1761       C  0.09915853  0.59672315  0.30426431    -0.27600
C1762       C  0.08068423  0.59666456  0.31531635     0.02000
C1763       C  0.07641305  0.61273260  0.32896789     0.30100
C1764       C  0.09090454  0.62809468  0.33213734    -0.19400
C1765       C  0.10979929  0.62773000  0.32184188    -0.28800
C1766       C  0.11374434  0.61214680  0.30746223     0.44100
C1767       C  0.06653574  0.57911139  0.31387523     0.05300
O1768       O  0.05844139  0.61306977  0.33992868    -0.57300
H1769       H  0.08766697  0.63997449  0.34324527     0.18200
O1770       O  0.13248341  0.61075870  0.29796764    -0.64000
H1771       H  0.10269160  0.58426512  0.29391573     0.16700
C1772       C  0.05612498  0.57456635  0.29563640     0.28900
C1773       C  0.04164946  0.55873993  0.29528076    -0.24900
C1774       C  0.03751034  0.54708687  0.31296575    -0.24200
C1775       C  0.04858081  0.55135340  0.33105465     0.40400
C1776       C  0.06291108  0.56723002  0.33135369    -0.26700
O1777       O  0.05929126  0.58611710  0.27838721    -0.58600
H1778       H  0.03347622  0.55579690  0.28115906     0.16000
O1779       O  0.04573431  0.54004300  0.34851817    -0.60000
H1780       H  0.07112503  0.57044646  0.34540617     0.14500
H1781       H  0.13025668  0.61627929  0.28400277     0.46300
H1782       H  0.06959344  0.57842093  0.27027372     0.41700
H1783       H  0.03566926  0.54790675  0.35677155     0.45200
H1784       H  0.04809556  0.61902658  0.33051200     0.36600
C1785       C  0.08751927  0.55551507  0.69363049    -0.27600
C1786       C  0.09089063  0.56429168  0.67430073     0.02000
C1787       C  0.07735974  0.55968753  0.65818637     0.30100
C1788       C  0.06108538  0.54619177  0.66135350    -0.19400
C1789       C  0.05769237  0.53715747  0.68060395    -0.28800
C1790       C  0.07099932  0.54215062  0.69691661     0.44100
C1791       C  0.10814684  0.57866354  0.67095158     0.05300
O1792       O  0.07982598  0.56842931  0.63924461    -0.57300
H1793       H  0.05103703  0.54286181  0.64858228     0.18200
O1794       O  0.06848114  0.53359294  0.71592121    -0.64000
H1795       H  0.09784274  0.55888435  0.70617101     0.16700
C1796       C  0.10993940  0.59662234  0.68267560     0.28900
C1797       C  0.12461353  0.61134403  0.67744241    -0.24900
C1798       C  0.13763654  0.60840885  0.66058126    -0.24200
C1799       C  0.13666164  0.58993040  0.64958840     0.40400
C1800       C  0.12199063  0.57521629  0.65481165    -0.26700
O1801       O  0.09634893  0.60066018  0.69820349    -0.58600
H1802       H  0.12506834  0.62556274  0.68593370     0.16000
O1803       O  0.14961233  0.58630159  0.63341666    -0.60000
H1804       H  0.12102016  0.56129401  0.64587982     0.14500
H1805       H  0.06044872  0.54378015  0.72383167     0.46300
H1806       H  0.10401709  0.59779635  0.71099911     0.41700
H1807       H  0.16277245  0.58189374  0.63966231     0.45200
H1808       H  0.07234459  0.58163658  0.63994959     0.36600
C1809       C  0.08512366  0.43277942  0.69284749    -0.27600
C1810       C  0.08901460  0.42557782  0.67301586     0.02000
C1811       C  0.07553788  0.43071682  0.65705516     0.30100
C1812       C  0.05896647  0.44369558  0.66077170    -0.19400
C1813       C  0.05551427  0.45193326  0.68033840    -0.28800
C1814       C  0.06847190  0.44588478  0.69662152     0.44100
C1815       C  0.10710553  0.41269332  0.66872893     0.05300
O1816       O  0.07827025  0.42274107  0.63781681    -0.57300
H1817       H  0.04901894  0.44759205  0.64806713     0.18200
O1818       O  0.06555915  0.45323628  0.71605228    -0.64000
H1819       H  0.09529697  0.42862202  0.70529523     0.16700
C1820       C  0.12199951  0.41915221  0.65449734     0.28900
C1821       C  0.13708931  0.40552177  0.64782509    -0.24900
C1822       C  0.13785085  0.38553185  0.65553244    -0.24200
C1823       C  0.12364289  0.37943226  0.67068007     0.40400
C1824       C  0.10843567  0.39306870  0.67724582    -0.26700
O1825       O  0.12147480  0.43856100  0.64650837    -0.58600
H1826       H  0.14807650  0.41049434  0.63639366     0.16000
O1827       O  0.12375422  0.35988360  0.67833566    -0.60000
H1828       H  0.09702546  0.38797043  0.68819645     0.14500
H1829       H  0.05637723  0.44317343  0.72278749     0.46300
H1830       H  0.12840750  0.44726615  0.65681683     0.41700
H1831       H  0.11514184  0.35183073  0.66877739     0.45200
H1832       H  0.08330243  0.43426460  0.62929888     0.36600
C1833       C  0.07395574  0.69513589  0.56840498    -0.27600
C1834       C  0.08232476  0.67592124  0.57326399     0.02000
C1835       C  0.07637173  0.65877099  0.56170221     0.30100
C1836       C  0.06177241  0.66077795  0.54617471    -0.19400
C1837       C  0.05285387  0.67985274  0.54152746    -0.28800
C1838       C  0.05938475  0.69721786  0.55265542     0.44100
C1839       C  0.09697676  0.67345481  0.59053992     0.05300
O1840       O  0.08466371  0.63984438  0.56555725    -0.57300
H1841       H  0.05733308  0.64717346  0.53783546     0.18200
O1842       O  0.05113198  0.71615123  0.54886432    -0.64000
H1843       H  0.07838183  0.70849063  0.57714690     0.16700
C1844       C  0.11587168  0.68393885  0.59096307     0.28900
C1845       C  0.13060787  0.67899579  0.60585069    -0.24900
C1846       C  0.12674108  0.66363111  0.62036478    -0.24200
C1847       C  0.10742612  0.65404573  0.62070039     0.40400
C1848       C  0.09265581  0.65911185  0.60598107    -0.26700
O1849       O  0.12072022  0.69776949  0.57592915    -0.58600
H1850       H  0.14554183  0.68627270  0.60527324     0.16000
O1851       O  0.10290713  0.63967602  0.63535818    -0.60000
H1852       H  0.07801447  0.65124956  0.60615742     0.14500
H1853       H  0.06046535  0.72254616  0.53871195     0.46300
H1854       H  0.11885028  0.71139890  0.58231986     0.41700
H1855       H  0.10344903  0.62629661  0.62823211     0.45200
H1856       H  0.09801967  0.63973177  0.55825014     0.36600
C1857       C  0.11085597  0.67566198  0.40834001    -0.27600
C1858       C  0.09112710  0.68316609  0.40410710     0.02000
C1859       C  0.08588066  0.68839529  0.38385295     0.30100
C1860       C  0.09991058  0.68480140  0.36796309    -0.19400
C1861       C  0.11912073  0.67605383  0.37216104    -0.28800
C1862       C  0.12477582  0.67198199  0.39249621     0.44100
C1863       C  0.07561474  0.68331371  0.42061926     0.05300
O1864       O  0.06671004  0.69584281  0.37932399    -0.57300
H1865       H  0.09532033  0.68760630  0.35227121     0.18200
O1866       O  0.14363041  0.66368016  0.39689763    -0.64000
H1867       H  0.11510825  0.67174345  0.42389063     0.16700
C1868       C  0.06987302  0.66487529  0.43013161     0.28900
C1869       C  0.05571183  0.66501019  0.44616981    -0.24900
C1870       C  0.04686767  0.68340803  0.45302374    -0.24200
C1871       C  0.05238972  0.70189032  0.44315784     0.40400
C1872       C  0.06666953  0.70170674  0.42708316    -0.26700
O1873       O  0.07808218  0.64658586  0.42384538    -0.58600
H1874       H  0.05174394  0.65057262  0.45329525     0.16000
O1875       O  0.04418300  0.72025026  0.44918421    -0.60000
H1876       H  0.07096256  0.71597902  0.41980440     0.14500
H1877       H  0.14115888  0.64880212  0.39857778     0.46300
H1878       H  0.06889350  0.64176032  0.41276321     0.41700
H1879       H  0.03167944  0.72204313  0.44070766     0.45200
H1880       H  0.05812595  0.68357798  0.37680888     0.36600
C1881       C  0.90861070  0.68329506  0.59915523    -0.27600
C1882       C  0.92713280  0.67240492  0.59857286     0.02000
C1883       C  0.93157261  0.65790160  0.61382027     0.30100
C1884       C  0.91701011  0.65363710  0.62890472    -0.19400
C1885       C  0.89801489  0.66373631  0.62892328    -0.28800
C1886       C  0.89398507  0.67899112  0.61420840     0.44100
C1887       C  0.94077168  0.67465329  0.58084026     0.05300
O1888       O  0.95004933  0.64777622  0.61392295    -0.57300
H1889       H  0.92035863  0.64205559  0.64031182     0.18200
O1890       O  0.87544373  0.68897003  0.61374303    -0.64000
H1891       H  0.90511008  0.69441997  0.58734862     0.16700
C1892       C  0.94172892  0.65908675  0.56608528     0.28900
C1893       C  0.95490963  0.66107960  0.54936702    -0.24900
C1894       C  0.96726853  0.67852153  0.54712917    -0.24200
C1895       C  0.96601228  0.69428938  0.56183168     0.40400
C1896       C  0.95277882  0.69224938  0.57858961    -0.26700
O1897       O  0.92936550  0.64216045  0.56765360    -0.58600
H1898       H  0.95540475  0.64894275  0.53809542     0.16000
O1899       O  0.97832304  0.71125223  0.56051754    -0.60000
H1900       H  0.95208640  0.70425763  0.58998919     0.14500
H1901       H  0.86640144  0.68030327  0.60517416     0.46300
H1902       H  0.93863006  0.63079056  0.57166097     0.41700
H1903       H  0.96959405  0.72198694  0.55421610     0.45200
H1904       H  0.94698138  0.63374779  0.60905143     0.36600
C1905       C  0.93782304  0.55401620  0.70181126    -0.27600
C1906       C  0.93911630  0.57012295  0.68768138     0.02000
C1907       C  0.95601977  0.57132889  0.67435706     0.30100
C1908       C  0.97128152  0.55634506  0.67505383    -0.19400
C1909       C  0.97002364  0.54014044  0.68908568    -0.28800
C1910       C  0.95331100  0.53914094  0.70273295     0.44100
C1911       C  0.92221256  0.58495490  0.68577554     0.05300
O1912       O  0.95748432  0.58686515  0.66029617    -0.57300
H1913       H  0.98404988  0.55725544  0.66443981     0.18200
O1914       O  0.95130119  0.52300843  0.71601659    -0.64000
H1915       H  0.92465604  0.55284398  0.71189140     0.16700
C1916       C  0.90400570  0.57943340  0.67565599     0.28900
C1917       C  0.88921801  0.59432366  0.67135019    -0.24900
C1918       C  0.89235799  0.61471219  0.67714431    -0.24200
C1919       C  0.91030349  0.62015785  0.68776080     0.40400
C1920       C  0.92514631  0.60525651  0.69203350    -0.26700
O1921       O  0.90099885  0.55973068  0.66910911    -0.58600
H1922       H  0.87561538  0.59012650  0.66277646     0.16000
O1923       O  0.91395965  0.64014085  0.69298800    -0.60000
H1924       H  0.93929739  0.60965625  0.69954133     0.14500
H1925       H  0.95724540  0.52787139  0.72909987     0.46300
H1926       H  0.90664357  0.55932513  0.65501246     0.41700
H1927       H  0.92053215  0.64634048  0.68077092     0.45200
H1928       H  0.95040700  0.58170864  0.64790010     0.36600
C1929       C  0.84787864  0.55427052  0.58245741    -0.27600
C1930       C  0.83154349  0.56755377  0.58666939     0.02000
C1931       C  0.81235519  0.56421587  0.57742938     0.30100
C1932       C  0.80990109  0.54806758  0.56353858    -0.19400
C1933       C  0.82646372  0.53508309  0.55876491    -0.28800
C1934       C  0.84544929  0.53805364  0.56878691     0.44100
C1935       C  0.83517299  0.58528283  0.60012548     0.05300
O1936       O  0.79630148  0.57733615  0.58100148    -0.57300
H1937       H  0.79524325  0.54618532  0.55594265     0.18200
O1938       O  0.86188505  0.52542584  0.56511642    -0.64000
H1939       H  0.86266455  0.55663790  0.58968160     0.16700
C1940       C  0.82708077  0.58595178  0.62008188     0.28900
C1941       C  0.83227364  0.60212554  0.63313440    -0.24900
C1942       C  0.84581688  0.61746587  0.62656025    -0.24200
C1943       C  0.85350480  0.61701522  0.60644103     0.40400
C1944       C  0.84817698  0.60098156  0.59337464    -0.26700
O1945       O  0.81482454  0.57044957  0.62720635    -0.58600
H1946       H  0.82657138  0.60214486  0.64871665     0.16000
O1947       O  0.86666517  0.63189621  0.59958914    -0.60000
H1948       H  0.85454584  0.60053624  0.57805390     0.14500
H1949       H  0.85968932  0.51336681  0.57407854     0.46300
H1950       H  0.82444085  0.56006410  0.63277249     0.41700
H1951       H  0.85769026  0.64336898  0.59524236     0.45200
H1952       H  0.78809510  0.57074317  0.59195811     0.36600
C1953       C  0.81723438  0.70340593  0.67771060    -0.27600
C1954       C  0.81257697  0.70087899  0.69837938     0.02000
C1955       C  0.82146933  0.68477061  0.70948352     0.30100
C1956       C  0.83507869  0.67132735  0.69984128    -0.19400
C1957       C  0.83997808  0.67366499  0.67895017    -0.28800
C1958       C  0.83045712  0.68978087  0.66787043     0.44100
C1959       C  0.79723021  0.71420069  0.70796966     0.05300
O1960       O  0.81628857  0.68157422  0.72958768    -0.57300
H1961       H  0.84100714  0.65878351  0.70879413     0.18200
O1962       O  0.83393387  0.69235001  0.64731456    -0.64000
H1963       H  0.81012746  0.71565679  0.66903978     0.16700
C1964       C  0.80295741  0.73248329  0.71745214     0.28900
C1965       C  0.78838200  0.74375834  0.72833836    -0.24900
C1966       C  0.76787406  0.73680180  0.73044205    -0.24200
C1967       C  0.76190560  0.71968634  0.71839233     0.40400
C1968       C  0.77664981  0.70835022  0.70773547    -0.26700
O1969       O  0.82287247  0.73923503  0.71650608    -0.58600
H1970       H  0.79345737  0.75797593  0.73502394     0.16000
O1971       O  0.74171491  0.71374698  0.71725697    -0.60000
H1972       H  0.77203952  0.69471332  0.69951987     0.14500
H1973       H  0.82257607  0.68500445  0.64040657     0.46300
H1974       H  0.82324592  0.74881788  0.70473225     0.41700
H1975       H  0.74111024  0.69964550  0.72285717     0.45200
H1976       H  0.82598990  0.69009885  0.73756426     0.36600
C1977       C  0.88924778  0.66171207  0.43140189    -0.27600
C1978       C  0.90391247  0.67569824  0.42436058     0.02000
C1979       C  0.90135330  0.68480675  0.40503121     0.30100
C1980       C  0.88492785  0.67885779  0.39248752    -0.19400
C1981       C  0.87086501  0.66387860  0.39904301    -0.28800
C1982       C  0.87282689  0.65577278  0.41896403     0.44100
C1983       C  0.92307058  0.67826453  0.43621332     0.05300
O1984       O  0.91562815  0.69837405  0.39770590    -0.57300
H1985       H  0.88379834  0.68524770  0.37722658     0.18200
O1986       O  0.85858590  0.64233340  0.42659089    -0.64000
H1987       H  0.89095621  0.65480945  0.44639580     0.16700
C1988       C  0.92762696  0.69634528  0.44693063     0.28900
C1989       C  0.94548181  0.69746156  0.45897567    -0.24900
C1990       C  0.95881578  0.68054254  0.46070121    -0.24200
C1991       C  0.95424457  0.66261923  0.44948550     0.40400
C1992       C  0.93653355  0.66162227  0.43751635    -0.26700
O1993       O  0.91450516  0.71275388  0.44614856    -0.58600
H1994       H  0.94854120  0.71134951  0.46746356     0.16000
O1995       O  0.96678528  0.64576250  0.45028781    -0.60000
H1996       H  0.93315285  0.64762477  0.42930425     0.14500
H1997       H  0.86600610  0.62922390  0.42864419     0.46300
H1998       H  0.90423589  0.71020960  0.45707318     0.41700
H1999       H  0.97715633  0.64795415  0.43938290     0.45200
H2000       H  0.90947121  0.71208856  0.39985892     0.36600
C2001       C  0.80720928  0.58427685  0.41063269    -0.27600
C2002       C  0.80718914  0.59072949  0.43110926     0.02000
C2003       C  0.81021719  0.61153833  0.43570038     0.30100
C2004       C  0.81506467  0.62524678  0.42004156    -0.19400
C2005       C  0.81707742  0.61831097  0.39990169    -0.28800
C2006       C  0.81224530  0.59798662  0.39500974     0.44100
C2007       C  0.80795239  0.57519350  0.44741066     0.05300
O2008       O  0.80989695  0.61826685  0.45556864    -0.57300
H2009       H  0.81836054  0.64105312  0.42375651     0.18200
O2010       O  0.81345227  0.59118954  0.37518958    -0.64000
H2011       H  0.80493321  0.56828915  0.40692124     0.16700
C2012       C  0.79215922  0.56081341  0.45006292     0.28900
C2013       C  0.79468610  0.54475513  0.46404129    -0.24900
C2014       C  0.81309862  0.54259424  0.47507498    -0.24200
C2015       C  0.82862871  0.55742796  0.47276666     0.40400
C2016       C  0.82596121  0.57353438  0.45902403    -0.26700
O2017       O  0.77423438  0.56244617  0.43916125    -0.58600
H2018       H  0.78248122  0.53363394  0.46576631     0.16000
O2019       O  0.84658865  0.55624202  0.48366669    -0.60000
H2020       H  0.83831869  0.58443784  0.45692285     0.14500
H2021       H  0.82798931  0.58708364  0.37322269     0.46300
H2022       H  0.77534756  0.55211747  0.42810979     0.41700
H2023       H  0.84384085  0.56370772  0.49658836     0.45200
H2024       H  0.79537005  0.62194491  0.45827813     0.36600
C2025       C  0.88250684  0.58527821  0.33074100    -0.27600
C2026       C  0.90078305  0.58369741  0.34199566     0.02000
C2027       C  0.90354464  0.59620742  0.35926262     0.30100
C2028       C  0.88837387  0.61036807  0.36480866    -0.19400
C2029       C  0.87004757  0.61211305  0.35357479    -0.28800
C2030       C  0.86708273  0.59914552  0.33654694     0.44100
C2031       C  0.91699396  0.56905084  0.33563687     0.05300
O2032       O  0.92143620  0.59527925  0.37029965    -0.57300
H2033       H  0.89121412  0.62030983  0.37774759     0.18200
O2034       O  0.84910921  0.59963586  0.32564102    -0.64000
H2035       H  0.88010272  0.57553534  0.31755775     0.16700
C2036       C  0.92183626  0.55200137  0.34786019     0.28900
C2037       C  0.93783435  0.53885711  0.34215537    -0.24900
C2038       C  0.94921044  0.54226897  0.32414959    -0.24200
C2039       C  0.94421820  0.55928140  0.31180674     0.40400
C2040       C  0.92818181  0.57249241  0.31758429    -0.26700
O2041       O  0.91110284  0.54814886  0.36551614    -0.58600
H2042       H  0.94128050  0.52584178  0.35185381     0.16000
O2043       O  0.95565308  0.56381446  0.29476811    -0.60000
H2044       H  0.92476465  0.58573404  0.30818825     0.14500
H2045       H  0.83987220  0.58985536  0.33270788     0.46300
H2046       H  0.89958430  0.53917091  0.36133357     0.41700
H2047       H  0.94725835  0.55915342  0.28301325     0.45200
H2048       H  0.91796587  0.58748286  0.38286141     0.36600
C2049       C  0.81862189  0.69088775  0.31099857    -0.27600
C2050       C  0.79794665  0.69608528  0.31412770     0.02000
C2051       C  0.78800374  0.68910905  0.33194190     0.30100
C2052       C  0.79831360  0.67626382  0.34558263    -0.19400
C2053       C  0.81880229  0.67015607  0.34203264    -0.28800
C2054       C  0.82922056  0.67877997  0.32510711     0.44100
C2055       C  0.78688472  0.70846243  0.29859055     0.05300
O2056       O  0.76824344  0.69494611  0.33636285    -0.57300
H2057       H  0.79016183  0.67184842  0.35926121     0.18200
O2058       O  0.84977406  0.67535001  0.32203122    -0.64000
H2059       H  0.82666387  0.69611324  0.29746510     0.16700
C2060       C  0.79582649  0.72597548  0.28984085     0.28900
C2061       C  0.78565476  0.73652792  0.27423845    -0.24900
C2062       C  0.76629722  0.73007284  0.26688958    -0.24200
C2063       C  0.75661233  0.71360264  0.27732046     0.40400
C2064       C  0.76719935  0.70258711  0.29231258    -0.26700
O2065       O  0.81395525  0.73362912  0.29731283    -0.58600
H2066       H  0.79284890  0.75031194  0.26859763     0.16000
O2067       O  0.73674851  0.70814029  0.27285847    -0.60000
H2068       H  0.75990444  0.68926554  0.29897166     0.14500
H2069       H  0.85684605  0.68655958  0.32941031     0.46300
H2070       H  0.82408866  0.73201493  0.28608417     0.41700
H2071       H  0.73730506  0.69379830  0.26793624     0.45200
H2072       H  0.76958315  0.70775147  0.34437120     0.36600
C2073       C  0.83208434  0.44206968  0.43384671    -0.27600
C2074       C  0.81755590  0.42635518  0.43375403     0.02000
C2075       C  0.80252833  0.42548011  0.44917483     0.30100
C2076       C  0.80247301  0.44017519  0.46480408    -0.19400
C2077       C  0.81745814  0.45565826  0.46525082    -0.28800
C2078       C  0.83211476  0.45667949  0.44935452     0.44100
C2079       C  0.81947392  0.41038466  0.41806297     0.05300
O2080       O  0.78843239  0.40991574  0.44953970    -0.57300
H2081       H  0.79116538  0.43906168  0.47692379     0.18200
O2082       O  0.84673925  0.47175934  0.44892143    -0.64000
H2083       H  0.84370611  0.44278272  0.42197912     0.16700
C2084       C  0.81004445  0.41260381  0.39883447     0.28900
C2085       C  0.81503517  0.39910688  0.38293608    -0.24900
C2086       C  0.82980437  0.38376343  0.38597539    -0.24200
C2087       C  0.83870043  0.38121055  0.40544463     0.40400
C2088       C  0.83347898  0.39447022  0.42133686    -0.26700
O2089       O  0.79654691  0.42833261  0.39528467    -0.58600
H2090       H  0.80812731  0.40120103  0.36799923     0.16000
O2091       O  0.85294277  0.36614688  0.40895064    -0.60000
H2092       H  0.84100709  0.39286363  0.43604074     0.14500
H2093       H  0.84036579  0.48320192  0.44121729     0.46300
H2094       H  0.80517952  0.43997609  0.39073606     0.41700
H2095       H  0.84496172  0.35433180  0.41417632     0.45200
H2096       H  0.77705835  0.41461331  0.44060456     0.36600
C2097       C  0.89707955  0.32109605  0.40731181    -0.27600
C2098       C  0.91553164  0.33196421  0.40535646     0.02000
C2099       C  0.91764016  0.34658090  0.38968093     0.30100
C2100       C  0.90114832  0.35065308  0.37662573    -0.19400
C2101       C  0.88241487  0.34037555  0.37901213    -0.28800
C2102       C  0.88052460  0.32520474  0.39423087     0.44100
C2103       C  0.93195844  0.32923352  0.42067210     0.05300
O2104       O  0.93587419  0.35676298  0.38695773    -0.57300
H2105       H  0.90293104  0.36211553  0.36475850     0.18200
O2106       O  0.86214398  0.31548978  0.39744650    -0.64000
H2107       H  0.89525685  0.30998852  0.41949905     0.16700
C2108       C  0.93721998  0.34548670  0.43365861     0.28900
C2109       C  0.95333640  0.34324943  0.44752819    -0.24900
C2110       C  0.96459439  0.32490968  0.44875785    -0.24200
C2111       C  0.95876338  0.30830077  0.43622741     0.40400
C2112       C  0.94253398  0.31058398  0.42226460    -0.26700
O2113       O  0.92622801  0.36342829  0.43327356    -0.58600
H2114       H  0.95705046  0.35609497  0.45730452     0.16000
O2115       O  0.96920990  0.29008690  0.43691435    -0.60000
H2116       H  0.93844374  0.29792364  0.41239203     0.14500
H2117       H  0.86395363  0.30158849  0.39165156     0.46300
H2118       H  0.93582752  0.37394814  0.42797155     0.41700
H2119       H  0.96131675  0.28138962  0.44655568     0.45200
H2120       H  0.93292783  0.37130141  0.39017342     0.36600
C2121       C  0.90534776  0.39357270  0.31033938    -0.27600
C2122       C  0.90407636  0.41429463  0.31570444     0.02000
C2123       C  0.88731538  0.42134479  0.32731137     0.30100
C2124       C  0.87255322  0.40751652  0.33430461    -0.19400
C2125       C  0.87417729  0.38670438  0.32956262    -0.28800
C2126       C  0.89040284  0.37976192  0.31711155     0.44100
C2127       C  0.92162678  0.42794780  0.31197238     0.05300
O2128       O  0.88579909  0.44157418  0.33267719    -0.57300
H2129       H  0.86014175  0.41292636  0.34395502     0.18200
O2130       O  0.89235220  0.35940055  0.31240382    -0.64000
H2131       H  0.91836621  0.38801113  0.30162282     0.16700
C2132       C  0.93889081  0.42675951  0.32479344     0.28900
C2133       C  0.95428900  0.44151762  0.32337968    -0.24900
C2134       C  0.95277136  0.45761164  0.30921056    -0.24200
C2135       C  0.93581456  0.45831940  0.29578036     0.40400
C2136       C  0.92025014  0.44361433  0.29738676    -0.26700
O2137       O  0.94043912  0.41163356  0.33929203    -0.58600
H2138       H  0.96726462  0.44060707  0.33371762     0.16000
O2139       O  0.93355947  0.47408182  0.28209376    -0.60000
H2140       H  0.90680912  0.44477450  0.28768602     0.14500
H2141       H  0.89964087  0.35321519  0.32421604     0.46300
H2142       H  0.93361067  0.41724017  0.35165014     0.41700
H2143       H  0.93919594  0.46881163  0.26901768     0.45200
H2144       H  0.89324014  0.44274503  0.34586088     0.36600
C2145       C  0.77413377  0.27509994  0.30077734    -0.27600
C2146       C  0.79008377  0.28670011  0.29232812     0.02000
C2147       C  0.79542193  0.28379843  0.27172837     0.30100
C2148       C  0.78548571  0.26890297  0.26022910    -0.19400
C2149       C  0.77013892  0.25614073  0.26876459    -0.28800
C2150       C  0.76388778  0.26022086  0.28925523     0.44100
C2151       C  0.80126019  0.30158929  0.30517665     0.05300
O2152       O  0.81038994  0.29543419  0.26261643    -0.57300
H2153       H  0.79015799  0.26694502  0.24444150     0.18200
O2154       O  0.74679307  0.25133249  0.29772169    -0.64000
H2155       H  0.76950277  0.27757644  0.31651023     0.16700
C2156       C  0.79076000  0.31618271  0.31705434     0.28900
C2157       C  0.80173548  0.32969551  0.32946377    -0.24900
C2158       C  0.82337589  0.32922260  0.33006373    -0.24200
C2159       C  0.83378544  0.31497617  0.31746160     0.40400
C2160       C  0.82274553  0.30117574  0.30551160    -0.26700
O2161       O  0.76975266  0.31767696  0.31634671    -0.58600
H2162       H  0.79298596  0.34083690  0.33793179     0.16000
O2163       O  0.85484714  0.31484348  0.31626733    -0.60000
H2164       H  0.83109046  0.29006077  0.29643877     0.14500
H2165       H  0.75162481  0.24398075  0.31011709     0.46300
H2166       H  0.76675129  0.32600242  0.30400466     0.41700
H2167       H  0.85927813  0.30197754  0.32302427     0.45200
H2168       H  0.80336768  0.30819167  0.25827736     0.36600
C2169       C  0.93595753  0.38636856  0.67074389    -0.27600
C2170       C  0.92887108  0.40081750  0.68488286     0.02000
C2171       C  0.90936854  0.39850188  0.69379418     0.30100
C2172       C  0.89665627  0.38239718  0.68757788    -0.19400
C2173       C  0.90327909  0.36866244  0.67243912    -0.28800
C2174       C  0.92327266  0.37036590  0.66443326     0.44100
C2175       C  0.94106438  0.41943747  0.68806331     0.05300
O2176       O  0.90220574  0.41253842  0.70765144    -0.57300
H2177       H  0.88126508  0.38124717  0.69378641     0.18200
O2178       O  0.93052516  0.35637931  0.65052431    -0.64000
H2179       H  0.95106534  0.38800673  0.66396446     0.16700
C2180       C  0.95635653  0.42038939  0.70316373     0.28900
C2181       C  0.96961613  0.43724026  0.70384636    -0.24900
C2182       C  0.96810088  0.45290901  0.68916655    -0.24200
C2183       C  0.95222522  0.45218799  0.67452080     0.40400
C2184       C  0.93876824  0.43557898  0.67416503    -0.26700
O2185       O  0.95880062  0.40467802  0.71687669    -0.58600
H2186       H  0.98175008  0.43752067  0.71517866     0.16000
O2187       O  0.94970292  0.46766878  0.66053798    -0.60000
H2188       H  0.92696707  0.43490184  0.66249367     0.14500
H2189       H  0.93117400  0.36375563  0.63726513     0.46300
H2190       H  0.96929504  0.39557423  0.71068829     0.41700
H2191       H  0.95566908  0.46240120  0.64760085     0.45200
H2192       H  0.90700194  0.40752314  0.72115758     0.36600
C2193       C  0.83762283  0.37874633  0.59083922    -0.27600
C2194       C  0.84107651  0.39955376  0.59462936     0.02000
C2195       C  0.84978974  0.40572702  0.61329435     0.30100
C2196       C  0.85575979  0.39104039  0.62765197    -0.19400
C2197       C  0.85283166  0.37021307  0.62367456    -0.28800
C2198       C  0.84347328  0.36402976  0.60529998     0.44100
C2199       C  0.83684037  0.41479561  0.57862884     0.05300
O2200       O  0.85254974  0.42608976  0.61753323    -0.57300
H2201       H  0.86302487  0.39586488  0.64176123     0.18200
O2202       O  0.84064286  0.34366425  0.60111279    -0.64000
H2203       H  0.83096463  0.37392172  0.57644339     0.16700
C2204       C  0.85293224  0.42245251  0.56656341     0.28900
C2205       C  0.84920074  0.43832535  0.55272543    -0.24900
C2206       C  0.82944331  0.44682872  0.55070900    -0.24200
C2207       C  0.81314043  0.43843508  0.56232475     0.40400
C2208       C  0.81698529  0.42261029  0.57625482    -0.26700
O2209       O  0.87234253  0.41441343  0.56818503    -0.58600
H2210       H  0.86192500  0.44412532  0.54375325     0.16000
O2211       O  0.79353523  0.44595787  0.56075501    -0.60000
H2212       H  0.80452934  0.41670426  0.58553853     0.14500
H2213       H  0.85244415  0.33967917  0.59238262     0.46300
H2214       H  0.87993801  0.42397730  0.57718191     0.41700
H2215       H  0.78681889  0.43740418  0.55017634     0.45200
H2216       H  0.86699633  0.42904286  0.61375537     0.36600
C2217       C  0.93150764  0.30777538  0.60156267    -0.27600
C2218       C  0.93017571  0.32044997  0.58426048     0.02000
C2219       C  0.91434518  0.33501480  0.58295617     0.30100
C2220       C  0.90062239  0.33735892  0.59919555    -0.19400
C2221       C  0.90242152  0.32540293  0.61696509    -0.28800
C2222       C  0.91771310  0.31017259  0.61791958     0.44100
C2223       C  0.94611548  0.31959847  0.56821093     0.05300
O2224       O  0.91216624  0.34691585  0.56575571    -0.57300
H2225       H  0.88876885  0.34893388  0.59801587     0.18200
O2226       O  0.92027918  0.29868751  0.63530161    -0.64000
H2227       H  0.94374939  0.29659261  0.60272293     0.16700
C2228       C  0.95914414  0.33643506  0.56508142     0.28900
C2229       C  0.97302876  0.33637665  0.54879228    -0.24900
C2230       C  0.97428852  0.31960953  0.53542640    -0.24200
C2231       C  0.96187769  0.30229674  0.53917868     0.40400
C2232       C  0.94780595  0.30244873  0.55545053    -0.26700
O2233       O  0.95867330  0.35280521  0.57822354    -0.58600
H2234       H  0.98280544  0.34960408  0.54660204     0.16000
O2235       O  0.96263532  0.28559250  0.52652502    -0.60000
H2236       H  0.93785214  0.28938472  0.55781528     0.14500
H2237       H  0.91429031  0.28513639  0.63204422     0.46300
H2238       H  0.95326851  0.36444393  0.57009074     0.41700
H2239       H  0.97243465  0.27602985  0.53314423     0.45200
H2240       H  0.91536780  0.36108325  0.57012850     0.36600
C2241       C  0.79543159  0.26129690  0.69821917    -0.27600
C2242       C  0.80592451  0.27667133  0.70883736     0.02000
C2243       C  0.80059877  0.28051804  0.72932460     0.30100
C2244       C  0.78467288  0.26958755  0.73853227    -0.19400
C2245       C  0.77343666  0.25442047  0.72788305    -0.28800
C2246       C  0.77997456  0.24969029  0.70760321     0.44100
C2247       C  0.82194457  0.28888916  0.69815066     0.05300
O2248       O  0.81084336  0.29496031  0.74058590    -0.57300
H2249       H  0.78080951  0.27321265  0.75424068     0.18200
O2250       O  0.77201561  0.23357183  0.69679032    -0.64000
H2251       H  0.79931230  0.25805955  0.68242809     0.16700
C2252       C  0.83708592  0.27951667  0.68587606     0.28900
C2253       C  0.85068103  0.29147764  0.67434443    -0.24900
C2254       C  0.84981496  0.31299979  0.67505649    -0.24200
C2255       C  0.83546658  0.32223892  0.68848900     0.40400
C2256       C  0.82158877  0.31026865  0.69955232    -0.26700
O2257       O  0.83873165  0.25861422  0.68496590    -0.58600
H2258       H  0.86180863  0.28357202  0.66503637     0.16000
O2259       O  0.83485874  0.34311028  0.69084660    -0.60000
H2260       H  0.81011981  0.31786848  0.70885583     0.14500
H2261       H  0.78355502  0.22392260  0.69448873     0.46300
H2262       H  0.84746551  0.25477008  0.69679043     0.41700
H2263       H  0.82215464  0.34768125  0.68382233     0.45200
H2264       H  0.82262248  0.28759441  0.74678603     0.36600
C2265       C  0.56466104  0.92174002  0.69819130    -0.27600
C2266       C  0.57052809  0.91459468  0.67883672     0.02000
C2267       C  0.56397486  0.92509468  0.66124494     0.30100
C2268       C  0.55109464  0.94202811  0.66303462    -0.19400
C2269       C  0.54452612  0.94900590  0.68231103    -0.28800
C2270       C  0.55165722  0.93878589  0.70005126     0.44100
C2271       C  0.58318368  0.89598856  0.67664320     0.05300
O2272       O  0.56999052  0.91878600  0.64213467    -0.57300
H2273       H  0.54616147  0.94962411  0.64913815     0.18200
O2274       O  0.54617168  0.94530704  0.71923210    -0.64000
H2275       H  0.56984528  0.91385058  0.71183831     0.16700
C2276       C  0.60387208  0.89568824  0.68283909     0.28900
C2277       C  0.61643301  0.87913002  0.67746326    -0.24900
C2278       C  0.60861256  0.86306873  0.66558135    -0.24200
C2279       C  0.58775035  0.86299518  0.66011723     0.40400
C2280       C  0.57510840  0.87927127  0.66590145    -0.26700
O2281       O  0.61223092  0.91204207  0.69297309    -0.58600
H2282       H  0.63260752  0.87950654  0.68134182     0.16000
O2283       O  0.57973340  0.84724000  0.64879603    -0.60000
H2284       H  0.55918000  0.87936005  0.66109898     0.14500
H2285       H  0.53420692  0.93676274  0.72311499     0.46300
H2286       H  0.61700648  0.92147936  0.68206921     0.41700
H2287       H  0.57832666  0.85269214  0.63469299     0.45200
H2288       H  0.58372876  0.92496883  0.63998643     0.36600
C2289       C  0.64625210  0.91915820  0.55654719    -0.27600
C2290       C  0.66335218  0.91447311  0.56863094     0.02000
C2291       C  0.68215583  0.92430597  0.56497586     0.30100
C2292       C  0.68359646  0.93900536  0.54949206    -0.19400
C2293       C  0.66635508  0.94409248  0.53757492    -0.28800
C2294       C  0.64760651  0.93383346  0.54108883     0.44100
C2295       C  0.66118691  0.89938521  0.58514804     0.05300
O2296       O  0.69912482  0.91974299  0.57654154    -0.57300
H2297       H  0.69815279  0.94662829  0.54700710     0.18200
O2298       O  0.63074450  0.93742041  0.52901971    -0.64000
H2299       H  0.63180612  0.91132945  0.55909125     0.16700
C2300       C  0.64862663  0.90363978  0.60211402     0.28900
C2301       C  0.64541701  0.88862866  0.61696289    -0.24900
C2302       C  0.65443882  0.86926374  0.61493662    -0.24200
C2303       C  0.66713460  0.86503935  0.59802194     0.40400
C2304       C  0.67063345  0.88019851  0.58332787    -0.26700
O2305       O  0.63946696  0.92243396  0.60424479    -0.58600
H2306       H  0.63545430  0.89193157  0.62984589     0.16000
O2307       O  0.67524145  0.84587586  0.59515343    -0.60000
H2308       H  0.68003949  0.87674578  0.57008446     0.14500
H2309       H  0.62189131  0.94677057  0.53709608     0.46300
H2310       H  0.62526432  0.92063777  0.59908022     0.41700
H2311       H  0.66429180  0.83797956  0.58818215     0.45200
H2312       H  0.69782258  0.92829903  0.58900018     0.36600
C2313       C  0.58181675  0.79780672  0.59762459    -0.27600
C2314       C  0.57962781  0.81094492  0.58077514     0.02000
C2315       C  0.59358019  0.82710191  0.57801227     0.30100
C2316       C  0.60857047  0.83085248  0.59270946    -0.19400
C2317       C  0.60997447  0.81862445  0.61030719    -0.28800
C2318       C  0.59700630  0.80149508  0.61236495     0.44100
C2319       C  0.56183068  0.80907133  0.56699149     0.05300
O2320       O  0.59211429  0.83984016  0.56137368    -0.57300
H2321       H  0.61880806  0.84374404  0.59058514     0.18200
O2322       O  0.59792388  0.78932257  0.62944573    -0.64000
H2323       H  0.57113403  0.78530526  0.59985249     0.16700
C2324       C  0.55923862  0.79196485  0.55427081     0.28900
C2325       C  0.54327477  0.79173696  0.53991562    -0.24900
C2326       C  0.52983715  0.80850221  0.53806211    -0.24200
C2327       C  0.53200935  0.82523303  0.55147614     0.40400
C2328       C  0.54785249  0.82535081  0.56584856    -0.26700
O2329       O  0.57294060  0.77602718  0.55490213    -0.58600
H2330       H  0.54187373  0.77875467  0.52972161     0.16000
O2331       O  0.51852721  0.84137512  0.55091961    -0.60000
H2332       H  0.54952273  0.83843017  0.57589229     0.14500
H2333       H  0.60516483  0.77673365  0.62498644     0.46300
H2334       H  0.56651913  0.76567250  0.56396795     0.41700
H2335       H  0.52580277  0.85236157  0.54335816     0.45200
H2336       H  0.59948797  0.83264698  0.55021068     0.36600
C2337       C  0.69287992  0.81026340  0.69135279    -0.27600
C2338       C  0.69548836  0.78929867  0.68798196     0.02000
C2339       C  0.68402386  0.77953485  0.67270744     0.30100
C2340       C  0.66971266  0.79061238  0.66130365    -0.19400
C2341       C  0.66660258  0.81169484  0.66476881    -0.28800
C2342       C  0.67881031  0.82150486  0.67977465     0.44100
C2343       C  0.70986013  0.77764062  0.70087157     0.05300
O2344       O  0.68674890  0.75910160  0.66875877    -0.57300
H2345       H  0.66151174  0.78232834  0.64969044     0.18200
O2346       O  0.67672305  0.84205021  0.68359866    -0.64000
H2347       H  0.70164704  0.81791468  0.70316968     0.16700
C2348       C  0.73079001  0.78244953  0.70123025     0.28900
C2349       C  0.74389036  0.77191628  0.71441111    -0.24900
C2350       C  0.73637282  0.75724489  0.72848345    -0.24200
C2351       C  0.71548947  0.75105766  0.72638902     0.40400
C2352       C  0.70250600  0.76154459  0.71289423    -0.26700
O2353       O  0.73862689  0.79718438  0.68846483    -0.58600
H2354       H  0.76000035  0.77604199  0.71445806     0.16000
O2355       O  0.70800004  0.73382404  0.73584433    -0.60000
H2356       H  0.68651484  0.75707911  0.71184361     0.14500
H2357       H  0.68847831  0.84864780  0.67655637     0.46300
H2358       H  0.74052874  0.80943803  0.69719459     0.41700
H2359       H  0.69547395  0.73808612  0.74338101     0.45200
H2360       H  0.69856958  0.75842328  0.65920145     0.36600
C2361       C  0.43363049  0.94099058  0.65732875    -0.27600
C2362       C  0.42223175  0.93521420  0.67454150     0.02000
C2363       C  0.42805841  0.94249055  0.69395227     0.30100
C2364       C  0.44531440  0.95516791  0.69591745    -0.19400
C2365       C  0.45693689  0.96081816  0.67864287    -0.28800
C2366       C  0.45080926  0.95355773  0.65918933     0.44100
C2367       C  0.40516452  0.92054974  0.67185839     0.05300
O2368       O  0.41701413  0.93728087  0.71105573    -0.57300
H2369       H  0.44954911  0.96060276  0.71098559     0.18200
O2370       O  0.46154161  0.95843417  0.64178852    -0.64000
H2371       H  0.42948858  0.93526814  0.64232907     0.16700
C2372       C  0.38937424  0.92442612  0.65764726     0.28900
C2373       C  0.37518862  0.90911915  0.65293008    -0.24900
C2374       C  0.37619120  0.88995300  0.66252595    -0.24200
C2375       C  0.39174103  0.88620989  0.67708374     0.40400
C2376       C  0.40599662  0.90150838  0.68173002    -0.26700
O2377       O  0.38798470  0.94299110  0.64793720    -0.58600
H2378       H  0.36344358  0.91222992  0.64164341     0.16000
O2379       O  0.39381172  0.86735150  0.68608117    -0.60000
H2380       H  0.41832711  0.89815767  0.69234979     0.14500
H2381       H  0.47178957  0.94731311  0.64014767     0.46300
H2382       H  0.37995991  0.95180149  0.65736059     0.41700
H2383       H  0.40239986  0.85927942  0.67648488     0.45200
H2384       H  0.40622478  0.94793599  0.71225332     0.36600
C2385       C  0.42319372  0.80158253  0.56438857    -0.27600
C2386       C  0.41272313  0.82029701  0.56538057     0.02000
C2387       C  0.41616766  0.83524790  0.55033870     0.30100
C2388       C  0.43087054  0.83191921  0.53519797    -0.19400
C2389       C  0.44224496  0.81363732  0.53466672    -0.28800
C2390       C  0.43794168  0.79816311  0.54913169     0.44100
C2391       C  0.39995360  0.82525680  0.58326303     0.05300
O2392       O  0.40578902  0.85352197  0.55083201    -0.57300
H2393       H  0.43364063  0.84388743  0.52404685     0.18200
O2394       O  0.44863498  0.78007393  0.54908586    -0.64000
H2395       H  0.42059765  0.79001210  0.57599109     0.16700
C2396       C  0.38032022  0.81675640  0.58589880     0.28900
C2397       C  0.36803279  0.82318018  0.60227598    -0.24900
C2398       C  0.37520909  0.83807538  0.61599140    -0.24200
C2399       C  0.39503737  0.84615858  0.61358329     0.40400
C2400       C  0.40731425  0.83964933  0.59732899    -0.26700
O2401       O  0.37266012  0.80305369  0.57199240    -0.58600
H2402       H  0.35266156  0.81704905  0.60390750     0.16000
O2403       O  0.40270186  0.86000691  0.62736310    -0.60000
H2404       H  0.42253327  0.84609215  0.59547184     0.14500
H2405       H  0.46065500  0.78246286  0.55808279     0.46300
H2406       H  0.37705626  0.78942626  0.57704676     0.41700
H2407       H  0.40217830  0.87343627  0.62030084     0.45200
H2408       H  0.39254423  0.85082445  0.54385983     0.36600
C2409       C  0.31310291  0.91430985  0.60250513    -0.27600
C2410       C  0.30978667  0.90506448  0.58342526     0.02000
C2411       C  0.31136541  0.88367745  0.58156117     0.30100
C2412       C  0.31772971  0.87197424  0.59831880    -0.19400
C2413       C  0.32235031  0.88145676  0.61695552    -0.28800
C2414       C  0.31930488  0.90258284  0.61927924     0.44100
C2415       C  0.30814910  0.91816768  0.56514754     0.05300
O2416       O  0.30788291  0.87429500  0.56313324    -0.57300
H2417       H  0.32006139  0.85565370  0.59650349     0.18200
O2418       O  0.32358432  0.91205680  0.63748944    -0.64000
H2419       H  0.31210814  0.93078531  0.60405781     0.16700
C2420       C  0.29183534  0.93203281  0.56266316     0.28900
C2421       C  0.29239844  0.94637727  0.54673045    -0.24900
C2422       C  0.30941181  0.94739012  0.53350634    -0.24200
C2423       C  0.32527715  0.93279907  0.53552144     0.40400
C2424       C  0.32452993  0.91835546  0.55124150    -0.26700
O2425       O  0.27540937  0.93172501  0.57581254    -0.58600
H2426       H  0.27994897  0.95729815  0.54531281     0.16000
O2427       O  0.34186389  0.93281366  0.52256487    -0.60000
H2428       H  0.33723303  0.90778301  0.55311438     0.14500
H2429       H  0.31141317  0.90951087  0.64625487     0.46300
H2430       H  0.27806134  0.94285075  0.58576769     0.41700
H2431       H  0.33752554  0.92457074  0.51059577     0.45200
H2432       H  0.29299477  0.87112038  0.56307214     0.36600
C2433       C  0.30355373  0.80153093  0.67964549    -0.27600
C2434       C  0.30235519  0.80561398  0.70060153     0.02000
C2435       C  0.31228916  0.82280428  0.70868629     0.30100
C2436       C  0.32373509  0.83548264  0.69590528    -0.19400
C2437       C  0.32548494  0.83134381  0.67479967    -0.28800
C2438       C  0.31463429  0.81441245  0.66670202     0.44100
C2439       C  0.29046507  0.79198754  0.71393963     0.05300
O2440       O  0.31057957  0.82756385  0.72906147    -0.57300
H2441       H  0.33044548  0.84883849  0.70280915     0.18200
O2442       O  0.31488447  0.81020269  0.64613279    -0.64000
H2443       H  0.29578987  0.78833670  0.67328230     0.16700
C2444       C  0.26944662  0.78904342  0.71068932     0.28900
C2445       C  0.25853313  0.77586722  0.72339873    -0.24900
C2446       C  0.26835635  0.76448187  0.73902177    -0.24200
C2447       C  0.28931363  0.76914537  0.74328227     0.40400
C2448       C  0.30017328  0.78229680  0.73034978    -0.26700
O2449       O  0.25934945  0.79938411  0.69542016    -0.58600
H2450       H  0.24229231  0.77381780  0.72046960     0.16000
O2451       O  0.29936621  0.76153446  0.76011165    -0.60000
H2452       H  0.31630201  0.78511669  0.73330982     0.14500
H2453       H  0.30221022  0.81654879  0.64059470     0.46300
H2454       H  0.25754475  0.78927348  0.68426056     0.41700
H2455       H  0.30294864  0.77352730  0.76868048     0.45200
H2456       H  0.29771147  0.83561910  0.73021151     0.36600
C2457       C  0.38037699  0.80988116  0.40194254    -0.27600
C2458       C  0.40084374  0.81639729  0.40055240     0.02000
C2459       C  0.40748184  0.82717503  0.38316084     0.30100
C2460       C  0.39349836  0.83210443  0.36773908    -0.19400
C2461       C  0.37287172  0.82629067  0.36938805    -0.28800
C2462       C  0.36634005  0.81478409  0.38642123     0.44100
C2463       C  0.41484576  0.81384346  0.41803483     0.05300
O2464       O  0.42755673  0.83327396  0.38136152    -0.57300
H2465       H  0.39862900  0.84102755  0.35471278     0.18200
O2466       O  0.34615343  0.80916616  0.38849057    -0.64000
H2467       H  0.37514284  0.80171750  0.41540812     0.16700
C2468       C  0.41795902  0.83017268  0.43161923     0.28900
C2469       C  0.43276480  0.82857331  0.44697917    -0.24900
C2470       C  0.44466837  0.81074684  0.44906555    -0.24200
C2471       C  0.44111703  0.79414863  0.43572230     0.40400
C2472       C  0.42632860  0.79584858  0.42023076    -0.26700
O2473       O  0.40656374  0.84776769  0.42993758    -0.58600
H2474       H  0.43497996  0.84139149  0.45724012     0.16000
O2475       O  0.45273519  0.77667606  0.43695337    -0.60000
H2476       H  0.42415304  0.78331317  0.40962034     0.14500
H2477       H  0.33957996  0.82044589  0.39624529     0.46300
H2478       H  0.41521539  0.85734259  0.42191816     0.41700
H2479       H  0.44423687  0.76684571  0.44482818     0.45200
H2480       H  0.42768935  0.84783169  0.38561423     0.36600
C2481       C  0.40301998  0.88594472  0.29953753    -0.27600
C2482       C  0.40381483  0.90522172  0.30886723     0.02000
C2483       C  0.38930958  0.91036185  0.32394360     0.30100
C2484       C  0.37446523  0.89612242  0.32986876    -0.19400
C2485       C  0.37381320  0.87666821  0.32086439    -0.28800
C2486       C  0.38800039  0.87170422  0.30532693     0.44100
C2487       C  0.42120146  0.91904459  0.30480590     0.05300
O2488       O  0.38986108  0.92912885  0.33329820    -0.57300
H2489       H  0.36356526  0.90020790  0.34172771     0.18200
O2490       O  0.38823557  0.85253813  0.29680631    -0.64000
H2491       H  0.41442657  0.88174141  0.28821150     0.16700
C2492       C  0.43932505  0.91697408  0.31626881     0.28900
C2493       C  0.45489622  0.93152101  0.31439370    -0.24900
C2494       C  0.45275773  0.94814026  0.30095612    -0.24200
C2495       C  0.43487686  0.94987712  0.28894665     0.40400
C2496       C  0.41912877  0.93538631  0.29101967    -0.26700
O2497       O  0.44175049  0.90094925  0.32963506    -0.58600
H2498       H  0.46861895  0.92994774  0.32364460     0.16000
O2499       O  0.43228928  0.96608407  0.27583886    -0.60000
H2500       H  0.40509535  0.93717416  0.28229751     0.14500
H2501       H  0.38192589  0.85420846  0.28309649     0.46300
H2502       H  0.43607516  0.90586447  0.34283336     0.41700
H2503       H  0.42675108  0.97732394  0.28441612     0.45200
H2504       H  0.39911970  0.92734927  0.34521475     0.36600
C2505       C  0.29706332  0.92708763  0.42555559    -0.27600
C2506       C  0.31622624  0.92029713  0.41843645     0.02000
C2507       C  0.33418783  0.92988898  0.42547587     0.30100
C2508       C  0.33289328  0.94559833  0.43985908    -0.19400
C2509       C  0.31381153  0.95211487  0.44760218    -0.28800
C2510       C  0.29573469  0.94289433  0.44002489     0.44100
C2511       C  0.31761124  0.90357735  0.40326026     0.05300
O2512       O  0.35305187  0.92450849  0.41774424    -0.57300
H2513       H  0.34703778  0.95261348  0.44500673     0.18200
O2514       O  0.27675489  0.94875069  0.44699567    -0.64000
H2515       H  0.28311791  0.91993622  0.42006009     0.16700
C2516       C  0.32951861  0.88604112  0.40733321     0.28900
C2517       C  0.33371250  0.87214153  0.39167992    -0.24900
C2518       C  0.32560497  0.87508312  0.37203312    -0.24200
C2519       C  0.31240696  0.89172858  0.36832187     0.40400
C2520       C  0.30856690  0.90595335  0.38390418    -0.26700
O2521       O  0.33773435  0.88276782  0.42638183    -0.58600
H2522       H  0.34370391  0.85923795  0.39478000     0.16000
O2523       O  0.30461339  0.89513237  0.34913070    -0.60000
H2524       H  0.29935382  0.91936733  0.38058801     0.14500
H2525       H  0.27181812  0.95903692  0.43696608     0.46300
H2526       H  0.32726080  0.87467944  0.43386146     0.41700
H2527       H  0.29066041  0.88907644  0.34936911     0.45200
H2528       H  0.36032225  0.91752235  0.42911533     0.36600
C2529       C  0.28883372  0.81149133  0.29485917    -0.27600
C2530       C  0.30013512  0.79624190  0.28490104     0.02000
C2531       C  0.32128150  0.79468476  0.28832735     0.30100
C2532       C  0.33078552  0.80784160  0.30218320    -0.19400
C2533       C  0.31950697  0.82265650  0.31321774    -0.28800
C2534       C  0.29829286  0.82487288  0.30869908     0.44100
C2535       C  0.28951737  0.78140686  0.27168912     0.05300
O2536       O  0.33276323  0.78018653  0.27835040    -0.57300
H2537       H  0.34719572  0.80631939  0.30448139     0.18200
O2538       O  0.28685938  0.84072472  0.31631889    -0.64000
H2539       H  0.27256037  0.81311399  0.29175904     0.16700
C2540       C  0.27698465  0.76637616  0.28042079     0.28900
C2541       C  0.26629598  0.75280191  0.26790997    -0.24900
C2542       C  0.26701294  0.75438828  0.24629594    -0.24200
C2543       C  0.28164808  0.76816918  0.23783655     0.40400
C2544       C  0.29227403  0.78185443  0.25047287    -0.26700
O2545       O  0.27551362  0.76451138  0.30128622    -0.58600
H2546       H  0.25745726  0.74104973  0.27548812     0.16000
O2547       O  0.28469478  0.76930350  0.21709617    -0.60000
H2548       H  0.30252480  0.79300199  0.24366646     0.14500
H2549       H  0.27688904  0.83436082  0.32588509     0.46300
H2550       H  0.26275578  0.77190395  0.30506614     0.41700
H2551       H  0.29795427  0.76225182  0.21459766     0.45200
H2552       H  0.33200949  0.76780758  0.28710919     0.36600
C2553       C  0.64162979  0.92028900  0.42996825    -0.27600
C2554       C  0.65876113  0.90912165  0.42327568     0.02000
C2555       C  0.67823642  0.91374672  0.43137366     0.30100
C2556       C  0.68040291  0.92960905  0.44557762    -0.19400
C2557       C  0.66328407  0.94100973  0.45215335    -0.28800
C2558       C  0.64369820  0.93601536  0.44428493     0.44100
C2559       C  0.65606403  0.89304064  0.40751199     0.05300
O2560       O  0.69525201  0.90279383  0.42558702    -0.57300
H2561       H  0.69557552  0.93290921  0.45149358     0.18200
O2562       O  0.62638925  0.94628324  0.45045998    -0.64000
H2563       H  0.62654357  0.91701559  0.42380571     0.16700
C2564       C  0.64114458  0.87764761  0.40990925     0.28900
C2565       C  0.63765280  0.86363254  0.39417518    -0.24900
C2566       C  0.64898745  0.86446280  0.37589297    -0.24200
C2567       C  0.66435712  0.87947664  0.37370845     0.40400
C2568       C  0.66771087  0.89367821  0.38942162    -0.26700
O2569       O  0.62973928  0.87627300  0.42751780    -0.58600
H2570       H  0.62600742  0.85201368  0.39634661     0.16000
O2571       O  0.67520983  0.88127060  0.35580227    -0.60000
H2572       H  0.67902134  0.90562069  0.38719468     0.14500
H2573       H  0.62456742  0.95746551  0.44034633     0.46300
H2574       H  0.63839436  0.86839354  0.43721479     0.41700
H2575       H  0.68917556  0.87609777  0.35898323     0.45200
H2576       H  0.69531368  0.89052873  0.43453606     0.36600
C2577       C  0.59735040  0.80278259  0.40662811    -0.27600
C2578       C  0.57638462  0.80340606  0.40165972     0.02000
C2579       C  0.57046362  0.80656412  0.38115971     0.30100
C2580       C  0.58531711  0.81079035  0.36631631    -0.19400
C2581       C  0.60611268  0.81156167  0.37161379    -0.28800
C2582       C  0.61222463  0.80676749  0.39167472     0.44100
C2583       C  0.56086525  0.80376977  0.41818594     0.05300
O2584       O  0.55011385  0.80672814  0.37576002    -0.57300
H2585       H  0.58054057  0.81437214  0.35084332     0.18200
O2586       O  0.63251569  0.80775126  0.39719293    -0.64000
H2587       H  0.60212353  0.80054987  0.42235100     0.16700
C2588       C  0.55882963  0.78762924  0.43229377     0.28900
C2589       C  0.54401704  0.78881837  0.44785421    -0.24900
C2590       C  0.53149183  0.80625106  0.44987238    -0.24200
C2591       C  0.53381432  0.82248583  0.43580401     0.40400
C2592       C  0.54836651  0.82112729  0.42018224    -0.26700
O2593       O  0.57078897  0.77042679  0.43059317    -0.58600
H2594       H  0.54247341  0.77616953  0.45847171     0.16000
O2595       O  0.52179152  0.83969717  0.43697365    -0.60000
H2596       H  0.55000337  0.83380276  0.40959597     0.14500
H2597       H  0.63840507  0.79432604  0.39324281     0.46300
H2598       H  0.58160188  0.77194887  0.44116122     0.41700
H2599       H  0.50942541  0.83656002  0.42870342     0.45200
H2600       H  0.54671389  0.79225196  0.37277934     0.36600
C2601       C  0.59352808  0.88919833  0.29977453    -0.27600
C2602       C  0.57450828  0.89049567  0.30967906     0.02000
C2603       C  0.56944419  0.87620718  0.32492687     0.30100
C2604       C  0.58385386  0.86153600  0.33095531    -0.19400
C2605       C  0.60350369  0.86102800  0.32210682    -0.28800
C2606       C  0.60808893  0.87468265  0.30594351     0.44100
C2607       C  0.56174645  0.90886590  0.30678872     0.05300
O2608       O  0.55064321  0.87692030  0.33440789    -0.57300
H2609       H  0.57983022  0.85099333  0.34308611     0.18200
O2610       O  0.62714244  0.87497337  0.29699361    -0.64000
H2611       H  0.59759794  0.90034307  0.28817260     0.16700
C2612       C  0.56262838  0.92457573  0.32139428     0.28900
C2613       C  0.55045466  0.94198744  0.31909396    -0.24900
C2614       C  0.53716814  0.94402804  0.30232670    -0.24200
C2615       C  0.53638958  0.92829742  0.28754422     0.40400
C2616       C  0.54880530  0.91087163  0.28977636    -0.26700
O2617       O  0.57566812  0.92311594  0.33782269    -0.58600
H2618       H  0.55130122  0.95388490  0.33059665     0.16000
O2619       O  0.52308943  0.92945141  0.27131474    -0.60000
H2620       H  0.54803576  0.89875984  0.27849921     0.14500
H2621       H  0.63565700  0.88380375  0.30593043     0.46300
H2622       H  0.56683517  0.91931296  0.34959278     0.41700
H2623       H  0.51008122  0.92335599  0.27633858     0.45200
H2624       H  0.55321586  0.88315972  0.34799013     0.36600
C2625       C  0.69452995  0.78833239  0.32171484    -0.27600
C2626       C  0.69422823  0.78708393  0.30031057     0.02000
C2627       C  0.67935400  0.79811387  0.28936162     0.30100
C2628       C  0.66488592  0.80995756  0.29968114    -0.19400
C2629       C  0.66484980  0.81138782  0.32122851    -0.28800
C2630       C  0.67993539  0.80017684  0.33217879     0.44100
C2631       C  0.70936585  0.77441707  0.28914103     0.05300
O2632       O  0.67880208  0.79743336  0.26838017    -0.57300
H2633       H  0.65374016  0.81758408  0.29025851     0.18200
O2634       O  0.68064490  0.80083241  0.35315780    -0.64000
H2635       H  0.70591168  0.77985591  0.33035736     0.16700
C2636       C  0.73047868  0.77798182  0.29095093     0.28900
C2637       C  0.74422454  0.76746943  0.27837587    -0.24900
C2638       C  0.73752863  0.75332964  0.26333103    -0.24200
C2639       C  0.71612541  0.74874325  0.26285216     0.40400
C2640       C  0.70245913  0.75944571  0.27551192    -0.26700
O2641       O  0.73785754  0.79203230  0.30466899    -0.58600
H2642       H  0.76041987  0.77079732  0.28005360     0.16000
O2643       O  0.70837819  0.73282625  0.25159553    -0.60000
H2644       H  0.68620845  0.75595664  0.27471040     0.14500
H2645       H  0.67388281  0.78806754  0.35783132     0.46300
H2646       H  0.73819967  0.80518391  0.29709457     0.41700
H2647       H  0.69809500  0.73894199  0.24218688     0.45200
H2648       H  0.68872098  0.80798272  0.26377106     0.36600
C2649       C  0.42191387  0.14465439  0.38026868    -0.27600
C2650       C  0.41817766  0.15721875  0.39730433     0.02000
C2651       C  0.39929489  0.16769217  0.39875568     0.30100
C2652       C  0.38447175  0.16540219  0.38344724    -0.19400
C2653       C  0.38797808  0.15233383  0.36681652    -0.28800
C2654       C  0.40690159  0.14204006  0.36518118     0.44100
C2655       C  0.43359273  0.15863198  0.41394878     0.05300
O2656       O  0.39481871  0.17949096  0.41552410    -0.57300
H2657       H  0.36976328  0.17299486  0.38512679     0.18200
O2658       O  0.41067071  0.12903208  0.34914737    -0.64000
H2659       H  0.43639740  0.13660931  0.37882447     0.16700
C2660       C  0.44088941  0.14090314  0.42377849     0.28900
C2661       C  0.45457325  0.14256124  0.44016032    -0.24900
C2662       C  0.46141999  0.16177266  0.44706197    -0.24200
C2663       C  0.45435181  0.17953419  0.43692048     0.40400
C2664       C  0.44052394  0.17784382  0.42058034    -0.26700
O2665       O  0.43388128  0.12192169  0.41819125    -0.58600
H2666       H  0.45964751  0.12862440  0.44759401     0.16000
O2667       O  0.46051675  0.19863845  0.44298280    -0.60000
H2668       H  0.43514519  0.19162519  0.41305860     0.14500
H2669       H  0.41652738  0.13777305  0.33819536     0.46300
H2670       H  0.44540797  0.11546540  0.41064361     0.41700
H2671       H  0.47261763  0.20185645  0.43433785     0.45200
H2672       H  0.38960337  0.16977926  0.42597609     0.36600
C2673       C  0.33923849  0.05837951  0.42719224    -0.27600
C2674       C  0.32361359  0.07302784  0.42538214     0.02000
C2675       C  0.30599359  0.07139059  0.43772831     0.30100
C2676       C  0.30403436  0.05497234  0.45142019    -0.19400
C2677       C  0.31965746  0.04017897  0.45315314    -0.28800
C2678       C  0.33737865  0.04205251  0.44084699     0.44100
C2679       C  0.32581687  0.08935512  0.40987615     0.05300
O2680       O  0.29070535  0.08579457  0.43659011    -0.57300
H2681       H  0.29039056  0.05395176  0.46086380     0.18200
O2682       O  0.35283943  0.02779914  0.44169035    -0.64000
H2683       H  0.35279902  0.05938110  0.41761386     0.16700
C2684       C  0.34285366  0.10254341  0.41035019     0.28900
C2685       C  0.34679422  0.11544326  0.39378954    -0.24900
C2686       C  0.33390824  0.11548746  0.37657293    -0.24200
C2687       C  0.31625459  0.10309902  0.37651425     0.40400
C2688       C  0.31224214  0.09018397  0.39319454    -0.26700
O2689       O  0.35623580  0.10227365  0.42655343    -0.58600
H2690       H  0.36034537  0.12504084  0.39415429     0.16000
O2691       O  0.30354759  0.10258466  0.35979845    -0.60000
H2692       H  0.29917148  0.07996115  0.39259522     0.14500
H2693       H  0.34874705  0.01694765  0.43191679     0.46300
H2694       H  0.35007057  0.11154392  0.43687699     0.41700
H2695       H  0.31003877  0.09275785  0.35020935     0.45200
H2696       H  0.29480744  0.09666478  0.44633721     0.36600
C2697       C  0.42537681  0.05329011  0.28540931    -0.27600
C2698       C  0.41981552  0.06165371  0.30437177     0.02000
C2699       C  0.43156304  0.05691520  0.32181321     0.30100
C2700       C  0.44804343  0.04337402  0.32035863    -0.19400
C2701       C  0.45339201  0.03441061  0.30156238    -0.28800
C2702       C  0.44202122  0.03971423  0.28389371     0.44100
C2703       C  0.40188980  0.07543000  0.30629721     0.05300
O2704       O  0.42698072  0.06542048  0.34045807    -0.57300
H2705       H  0.45659083  0.03981312  0.33413037     0.18200
O2706       O  0.44677211  0.03154245  0.26515790    -0.64000
H2707       H  0.41653782  0.05695034  0.27184863     0.16700
C2708       C  0.40135999  0.09447873  0.29623583     0.28900
C2709       C  0.38683024  0.10920027  0.30207331    -0.24900
C2710       C  0.37276320  0.10500073  0.31780192    -0.24200
C2711       C  0.37198022  0.08522307  0.32628953     0.40400
C2712       C  0.38649170  0.07060383  0.32052710    -0.26700
O2713       O  0.41619246  0.09955879  0.28222717    -0.58600
H2714       H  0.38758730  0.12437671  0.29543132     0.16000
O2715       O  0.35789097  0.08042250  0.34115531    -0.60000
H2716       H  0.38648578  0.05582408  0.32806509     0.14500
H2717       H  0.43790108  0.01929088  0.26383475     0.46300
H2718       H  0.40984733  0.09698092  0.26868472     0.41700
H2719       H  0.34503125  0.07731812  0.33366617     0.45200
H2720       H  0.43410822  0.07882152  0.34054455     0.36600
C2721       C  0.29835391  0.17326428  0.29538260    -0.27600
C2722       C  0.30296576  0.19415768  0.29429330     0.02000
C2723       C  0.31906926  0.20195450  0.30621753     0.30100
C2724       C  0.33078845  0.18887468  0.31850586    -0.19400
C2725       C  0.32694934  0.16763389  0.31912559    -0.28800
C2726       C  0.31010653  0.16006730  0.30765983     0.44100
C2727       C  0.29141524  0.20784325  0.28033184     0.05300
O2728       O  0.32316255  0.22255286  0.30629967    -0.57300
H2729       H  0.34287957  0.19585853  0.32723231     0.18200
O2730       O  0.30547613  0.13959379  0.30775927    -0.64000
H2731       H  0.28589639  0.16707879  0.28632247     0.16700
C2732       C  0.30157646  0.21811626  0.26442085     0.28900
C2733       C  0.29112006  0.23251587  0.25254903    -0.24900
C2734       C  0.27022311  0.23733307  0.25617250    -0.24200
C2735       C  0.25964464  0.22523391  0.27092846     0.40400
C2736       C  0.27032838  0.21095246  0.28300918    -0.26700
O2737       O  0.32178857  0.21397152  0.26014199    -0.58600
H2738       H  0.29955231  0.23938889  0.24007727     0.16000
O2739       O  0.23877129  0.22709362  0.27337224    -0.60000
H2740       H  0.26214269  0.20246936  0.29469826     0.14500
H2741       H  0.29378069  0.13816522  0.31738286     0.46300
H2742       H  0.32154917  0.20154394  0.25145141     0.41700
H2743       H  0.23641956  0.23069241  0.28792298     0.45200
H2744       H  0.33594091  0.22418761  0.29819486     0.36600
C2745       C  0.45130148  0.07451360  0.66772064    -0.27600
C2746       C  0.43590737  0.07501304  0.68276577     0.02000
C2747       C  0.43692509  0.06116172  0.69926942     0.30100
C2748       C  0.45269295  0.04662198  0.70011453    -0.19400
C2749       C  0.46756984  0.04553316  0.68456720    -0.28800
C2750       C  0.46708402  0.06002651  0.66857058     0.44100
C2751       C  0.41800528  0.08877368  0.67999476     0.05300
O2752       O  0.42221029  0.06126004  0.71429832    -0.57300
H2753       H  0.45278040  0.03564303  0.71255034     0.18200
O2754       O  0.48164008  0.05987652  0.65338362    -0.64000
H2755       H  0.45065837  0.08487998  0.65479114     0.16700
C2756       C  0.42061675  0.10978703  0.67586306     0.28900
C2757       C  0.40362822  0.12181478  0.67048411    -0.24900
C2758       C  0.38403817  0.11310142  0.66917931    -0.24200
C2759       C  0.38121277  0.09244973  0.67429699     0.40400
C2760       C  0.39814186  0.08038642  0.67959324    -0.26700
O2761       O  0.43969490  0.11861482  0.67705507    -0.58600
H2762       H  0.40586158  0.13776877  0.66653903     0.16000
O2763       O  0.36212074  0.08369946  0.67317463    -0.60000
H2764       H  0.39586270  0.06422569  0.68250042     0.14500
H2765       H  0.49324750  0.06801022  0.65885461     0.46300
H2766       H  0.44367914  0.12171591  0.66273006     0.41700
H2767       H  0.35565053  0.08645450  0.68663628     0.45200
H2768       H  0.42616317  0.07253698  0.72363084     0.36600
C2769       C  0.43703821  0.14423310  0.56237344    -0.27600
C2770       C  0.42340446  0.16063371  0.56453641     0.02000
C2771       C  0.42604800  0.17829745  0.55250939     0.30100
C2772       C  0.44211158  0.17919208  0.53820572    -0.19400
C2773       C  0.45558973  0.16252659  0.53573701    -0.28800
C2774       C  0.45309036  0.14510051  0.54830524     0.44100
C2775       C  0.40681994  0.15889725  0.57979749     0.05300
O2776       O  0.41292036  0.19460098  0.55448486    -0.57300
H2777       H  0.44380496  0.19275975  0.52882095     0.18200
O2778       O  0.46638155  0.12883739  0.54718683    -0.64000
H2779       H  0.43534328  0.13072280  0.57186244     0.16700
C2780       C  0.39211263  0.14323447  0.57814412     0.28900
C2781       C  0.37850571  0.13956150  0.59423827    -0.24900
C2782       C  0.37927329  0.15144108  0.61206132    -0.24200
C2783       C  0.39355400  0.16754909  0.61347709     0.40400
C2784       C  0.40715265  0.17126778  0.59730372    -0.26700
O2785       O  0.39141082  0.13101143  0.56111359    -0.58600
H2786       H  0.36747550  0.12722910  0.59289521     0.16000
O2787       O  0.39504565  0.17903555  0.63096394    -0.60000
H2788       H  0.41863723  0.18314909  0.59883731     0.14500
H2789       H  0.47798294  0.13246767  0.55631241     0.46300
H2790       H  0.38219725  0.13824977  0.55142849     0.41700
H2791       H  0.40437152  0.17121844  0.64008221     0.45200
H2792       H  0.40135535  0.19162608  0.54508462     0.36600
C2793       C  0.31170011  0.09415534  0.59109919    -0.27600
C2794       C  0.32174722  0.07518176  0.59056144     0.02000
C2795       C  0.33612911  0.07029298  0.60588699     0.30100
C2796       C  0.34114100  0.08469708  0.62080266    -0.19400
C2797       C  0.33187740  0.10405080  0.62081667    -0.28800
C2798       C  0.31675874  0.10864087  0.60602797     0.44100
C2799       C  0.31926757  0.06160651  0.57268613     0.05300
O2800       O  0.34607179  0.05177957  0.60581528    -0.57300
H2801       H  0.35278154  0.08093666  0.63202907     0.18200
O2802       O  0.30786060  0.12765414  0.60513396    -0.64000
H2803       H  0.30084018  0.09820576  0.57920722     0.16700
C2804       C  0.30019848  0.05305736  0.56735078     0.28900
C2805       C  0.29891111  0.03945657  0.55078948    -0.24900
C2806       C  0.31648769  0.03445365  0.53926829    -0.24200
C2807       C  0.33536439  0.04387417  0.54422950     0.40400
C2808       C  0.33660143  0.05717355  0.56081585    -0.26700
O2809       O  0.28301050  0.05715181  0.57878529    -0.58600
H2810       H  0.28423875  0.03252855  0.54723638     0.16000
O2811       O  0.35283181  0.04017034  0.53307654    -0.60000
H2812       H  0.35126855  0.06408498  0.56448406     0.14500
H2813       H  0.31777333  0.13630871  0.59751628     0.46300
H2814       H  0.27544922  0.06779794  0.57101024     0.41700
H2815       H  0.35243568  0.05017128  0.52165503     0.45200
H2816       H  0.33719710  0.04252648  0.61396799     0.36600
C2817       C  0.29851389  0.16878683  0.69330633    -0.27600
C2818       C  0.29889346  0.18996560  0.69032075     0.02000
C2819       C  0.31322836  0.19854865  0.67678851     0.30100
C2820       C  0.32678216  0.18591864  0.66610597    -0.19400
C2821       C  0.32621266  0.16447831  0.66850531    -0.28800
C2822       C  0.31212643  0.15609390  0.68274331     0.44100
C2823       C  0.28572588  0.20323319  0.70288171     0.05300
O2824       O  0.31491590  0.21939455  0.67485590    -0.57300
H2825       H  0.33784875  0.19340209  0.65643444     0.18200
O2826       O  0.31138175  0.13540521  0.68626345    -0.64000
H2827       H  0.28777062  0.16209733  0.70407133     0.16700
C2828       C  0.27179521  0.21694370  0.69392820     0.28900
C2829       C  0.26152949  0.23119342  0.70611262    -0.24900
C2830       C  0.26526777  0.23245248  0.72742935    -0.24200
C2831       C  0.27767093  0.21691225  0.73638870     0.40400
C2832       C  0.28798636  0.20282659  0.72410256    -0.26700
O2833       O  0.26827902  0.21668676  0.67323177    -0.58600
H2834       H  0.25048389  0.24096963  0.69860379     0.16000
O2835       O  0.28109693  0.21636695  0.75708908    -0.60000
H2836       H  0.29842233  0.19199315  0.73117055     0.14500
H2837       H  0.31944316  0.13318553  0.69894536     0.46300
H2838       H  0.25784290  0.20585826  0.67111611     0.41700
H2839       H  0.27360198  0.20414350  0.76210665     0.45200
H2840       H  0.30883713  0.22271149  0.66133997     0.36600
C2841       C  0.65896282  0.05507988  0.42781409    -0.27600
C2842       C  0.67650554  0.05598240  0.41548110     0.02000
C2843       C  0.69357563  0.04370220  0.42011367     0.30100
C2844       C  0.69259174  0.02999222  0.43655096    -0.19400
C2845       C  0.67462833  0.02836208  0.44844535    -0.28800
C2846       C  0.65787285  0.04143042  0.44416641     0.44100
C2847       C  0.67611078  0.06932629  0.39738868     0.05300
O2848       O  0.71104911  0.04467806  0.40842541    -0.57300
H2849       H  0.70571944  0.02027531  0.43964116     0.18200
O2850       O  0.64047259  0.04128170  0.45602490    -0.64000
H2851       H  0.64589929  0.06484644  0.42452886     0.16700
C2852       C  0.66176131  0.06564187  0.38177791     0.28900
C2853       C  0.65848073  0.08033587  0.36668525    -0.24900
C2854       C  0.66933101  0.09883923  0.36696667    -0.24200
C2855       C  0.68483575  0.10186815  0.38172886     0.40400
C2856       C  0.68812427  0.08706786  0.39687650    -0.26700
O2857       O  0.64996123  0.04826995  0.38191878    -0.58600
H2858       H  0.64671866  0.07766872  0.35527109     0.16000
O2859       O  0.69531309  0.12002176  0.38279436    -0.60000
H2860       H  0.69910654  0.09003175  0.40896277     0.14500
H2861       H  0.63031295  0.03313594  0.44820906     0.46300
H2862       H  0.65874476  0.03751424  0.37574640     0.41700
H2863       H  0.70904044  0.11709592  0.37689126     0.45200
H2864       H  0.70872565  0.03498186  0.39700072     0.36600
C2865       C  0.60799250  0.13991730  0.40954613    -0.27600
C2866       C  0.59470008  0.15667621  0.40777310     0.02000
C2867       C  0.59662541  0.16996812  0.39093923     0.30100
C2868       C  0.61111066  0.16579092  0.37560536    -0.19400
C2869       C  0.62369004  0.14834295  0.37682749    -0.28800
C2870       C  0.62241840  0.13567592  0.39428185     0.44100
C2871       C  0.57796403  0.15904932  0.42285429     0.05300
O2872       O  0.58395243  0.18662881  0.38899796    -0.57300
H2873       H  0.61190945  0.17571703  0.36234169     0.18200
O2874       O  0.63566820  0.11952446  0.39689068    -0.64000
H2875       H  0.60691339  0.12984484  0.42269120     0.16700
C2876       C  0.56272745  0.14391566  0.42442944     0.28900
C2877       C  0.54744248  0.14554934  0.43930614    -0.24900
C2878       C  0.54700207  0.16218659  0.45286641    -0.24200
C2879       C  0.56217882  0.17748788  0.45119412     0.40400
C2880       C  0.57750490  0.17587961  0.43616115    -0.26700
O2881       O  0.56235869  0.12774156  0.41106444    -0.58600
H2882       H  0.53576918  0.13377123  0.44011854     0.16000
O2883       O  0.56247454  0.19376612  0.46440872    -0.60000
H2884       H  0.58928586  0.18752888  0.43515241     0.14500
H2885       H  0.62703062  0.10703705  0.39648073     0.46300
H2886       H  0.56848773  0.11610538  0.41867332     0.41700
H2887       H  0.57034861  0.18892981  0.47647323     0.45200
H2888       H  0.57168384  0.18153279  0.38161437     0.36600
C2889       C  0.58290691  0.09914092  0.31893621    -0.27600
C2890       C  0.58811904  0.08044383  0.30970985     0.02000
C2891       C  0.60876932  0.07667121  0.30438871     0.30100
C2892       C  0.62394663  0.09111066  0.30914981    -0.19400
C2893       C  0.61876582  0.10923077  0.31937563    -0.28800
C2894       C  0.59807899  0.11340808  0.32389319     0.44100
C2895       C  0.57221122  0.06435536  0.30749511     0.05300
O2896       O  0.61442384  0.05843626  0.29567264    -0.57300
H2897       H  0.63991162  0.08758949  0.30603086     0.18200
O2898       O  0.59269906  0.13087168  0.33422478    -0.64000
H2899       H  0.56709314  0.10232940  0.32301568     0.16700
C2900       C  0.56153450  0.05720399  0.32479231     0.28900
C2901       C  0.54666231  0.04195402  0.32274120    -0.24900
C2902       C  0.54182930  0.03358855  0.30349758    -0.24200
C2903       C  0.55253937  0.04083703  0.28611235     0.40400
C2904       C  0.56770813  0.05596939  0.28824931    -0.26700
O2905       O  0.56613565  0.06447867  0.34394209    -0.58600
H2906       H  0.53885129  0.03673578  0.33642247     0.16000
O2907       O  0.54863017  0.03305329  0.26703767    -0.60000
H2908       H  0.57583698  0.06132866  0.27480369     0.14500
H2909       H  0.59153924  0.14161093  0.32355647     0.46300
H2910       H  0.55473777  0.07391516  0.34748600     0.41700
H2911       H  0.53908556  0.04296335  0.26055987     0.45200
H2912       H  0.61715347  0.04910405  0.30734052     0.36600
C2913       C  0.70547078  0.16301862  0.29522534    -0.27600
C2914       C  0.70595617  0.18414228  0.29828140     0.02000
C2915       C  0.69223471  0.19325533  0.31206271     0.30100
C2916       C  0.67822203  0.18120956  0.32284245    -0.19400
C2917       C  0.67766620  0.15978936  0.32021244    -0.28800
C2918       C  0.69143331  0.15084709  0.30594207     0.44100
C2919       C  0.71999338  0.19693065  0.28623193     0.05300
O2920       O  0.69213801  0.21406774  0.31479018    -0.57300
H2921       H  0.66782129  0.18909016  0.33292629     0.18200
O2922       O  0.69096241  0.13021003  0.30206676    -0.64000
H2923       H  0.71581898  0.15598460  0.28429853     0.16700
C2924       C  0.74057933  0.19926966  0.29186610     0.28900
C2925       C  0.75300330  0.21302148  0.28117604    -0.24900
C2926       C  0.74519150  0.22508807  0.26491571    -0.24200
C2927       C  0.72493324  0.22054890  0.25797539     0.40400
C2928       C  0.71241410  0.20729487  0.26918222    -0.26700
O2929       O  0.74863033  0.18834213  0.30790411    -0.58600
H2930       H  0.76873343  0.21485948  0.28612540     0.16000
O2931       O  0.71725907  0.22807022  0.23994210    -0.60000
H2932       H  0.69673150  0.20475274  0.26425369     0.14500
H2933       H  0.70375374  0.12460558  0.30812555     0.46300
H2934       H  0.74601674  0.19684119  0.32019661     0.41700
H2935       H  0.71776382  0.21650151  0.23015004     0.45200
H2936       H  0.70324182  0.21679836  0.32479904     0.36600
C2937       C  0.68866780  0.09381635  0.58212036    -0.27600
C2938       C  0.67829755  0.07509195  0.58320650     0.02000
C2939       C  0.66574338  0.07070449  0.60013984     0.30100
C2940       C  0.66293000  0.08539943  0.61536404    -0.19400
C2941       C  0.67237498  0.10459898  0.61380501    -0.28800
C2942       C  0.68567539  0.10865635  0.59726510     0.44100
C2943       C  0.67869924  0.06105421  0.56567162     0.05300
O2944       O  0.65592030  0.05219629  0.60167079    -0.57300
H2945       H  0.65274788  0.08205575  0.62806250     0.18200
O2946       O  0.69474775  0.12745991  0.59507946    -0.64000
H2947       H  0.69820981  0.09731867  0.56898647     0.16700
C2948       C  0.66146857  0.05963854  0.55287088     0.28900
C2949       C  0.66093281  0.04490986  0.53746352    -0.24900
C2950       C  0.67746430  0.03136985  0.53457787    -0.24200
C2951       C  0.69522264  0.03357360  0.54679028     0.40400
C2952       C  0.69567670  0.04832560  0.56232440    -0.26700
O2953       O  0.64513136  0.07270911  0.55532151    -0.58600
H2954       H  0.64734884  0.04391566  0.52795105     0.16000
O2955       O  0.71173891  0.02075036  0.54445132    -0.60000
H2956       H  0.70903183  0.04944702  0.57213983     0.14500
H2957       H  0.68541098  0.13537970  0.58606658     0.46300
H2958       H  0.63417736  0.06441408  0.56182547     0.41700
H2959       H  0.72122596  0.02809448  0.53511694     0.45200
H2960       H  0.64133233  0.05503339  0.59834963     0.36600
C2961       C  0.58588572  0.04803490  0.67018885    -0.27600
C2962       C  0.58700317  0.06355935  0.68485666     0.02000
C2963       C  0.57310788  0.06373670  0.70133229     0.30100
C2964       C  0.55760601  0.04892927  0.70243214    -0.19400
C2965       C  0.55568261  0.03413752  0.68698421    -0.28800
C2966       C  0.57039778  0.03339036  0.67113313     0.44100
C2967       C  0.60120541  0.08062658  0.68114332     0.05300
O2968       O  0.57401211  0.07882543  0.71585613    -0.57300
H2969       H  0.54646381  0.04967964  0.71473042     0.18200
O2970       O  0.56934079  0.01887002  0.65602416    -0.64000
H2971       H  0.59650096  0.04785107  0.65740128     0.16700
C2972       C  0.62256132  0.07741894  0.68106031     0.28900
C2973       C  0.63560405  0.09273339  0.67373325    -0.24900
C2974       C  0.62744645  0.11099846  0.66600917    -0.24200
C2975       C  0.60617762  0.11445211  0.66654332     0.40400
C2976       C  0.59316443  0.09937153  0.67438122    -0.26700
O2977       O  0.63069258  0.05919313  0.68763935    -0.58600
H2978       H  0.65200901  0.08996654  0.67311946     0.16000
O2979       O  0.59799798  0.13227374  0.65898655    -0.60000
H2980       H  0.57670006  0.10180561  0.67406097     0.14500
H2981       H  0.57669165  0.00679266  0.66159686     0.46300
H2982       H  0.63350433  0.05126533  0.67500942     0.41700
H2983       H  0.59479382  0.12935546  0.64444408     0.45200
H2984       H  0.58413448  0.07387355  0.72606070     0.36600
C2985       C  0.60954745  0.14897710  0.57683885    -0.27600
C2986       C  0.59243050  0.16046761  0.58294559     0.02000
C2987       C  0.59190152  0.16915450  0.60260865     0.30100
C2988       C  0.60822851  0.16582299  0.61615113    -0.19400
C2989       C  0.62500723  0.15372375  0.61027004    -0.28800
C2990       C  0.62574553  0.14546367  0.59041642     0.44100
C2991       C  0.57467249  0.16199231  0.56908363     0.05300
O2992       O  0.57492484  0.17973344  0.60912908    -0.57300
H2993       H  0.60735334  0.17185294  0.63156734     0.18200
O2994       O  0.64227287  0.13402091  0.58416862    -0.64000
H2995       H  0.61008555  0.14230191  0.56167284     0.16700
C2996       C  0.57002908  0.18028529  0.55877299     0.28900
C2997       C  0.55392304  0.18079556  0.54457897    -0.24900
C2998       C  0.54240441  0.16309255  0.54035892    -0.24200
C2999       C  0.54669295  0.14497335  0.55141409     0.40400
C3000       C  0.56276965  0.14455394  0.56555478    -0.26700
O3001       O  0.58146392  0.19756671  0.56210323    -0.58600
H3002       H  0.55092182  0.19489792  0.53638029     0.16000
O3003       O  0.53512064  0.12764842  0.54876612    -0.60000
H3004       H  0.56611932  0.13046828  0.57367255     0.14500
H3005       H  0.63762374  0.11958973  0.58481847     0.46300
H3006       H  0.59286186  0.19684866  0.55205323     0.41700
H3007       H  0.54344735  0.11865436  0.53977968     0.45200
H3008       H  0.57817921  0.19433796  0.60662514     0.36600
C3009       C  0.68455746  0.19545338  0.68440303    -0.27600
C3010       C  0.70510404  0.19066717  0.68839092     0.02000
C3011       C  0.71374344  0.17289021  0.67996053     0.30100
C3012       C  0.70195422  0.16030528  0.66737785    -0.19400
C3013       C  0.68133800  0.16515965  0.66283157    -0.28800
C3014       C  0.67256015  0.18265723  0.67219407     0.44100
C3015       C  0.71731135  0.20395929  0.70188134     0.05300
O3016       O  0.73364134  0.16745845  0.68425400    -0.57300
H3017       H  0.70903075  0.14637874  0.66202929     0.18200
O3018       O  0.65213323  0.18724349  0.66982945    -0.64000
H3019       H  0.67761839  0.20885596  0.69130337     0.16700
C3020       C  0.72063161  0.22454775  0.69696101     0.28900
C3021       C  0.73278874  0.23664270  0.70966450    -0.24900
C3022       C  0.74281008  0.22844245  0.72706010    -0.24200
C3023       C  0.73752523  0.20806960  0.73288036     0.40400
C3024       C  0.72549308  0.19598569  0.71996033    -0.26700
O3025       O  0.71236707  0.23291217  0.67954965    -0.58600
H3026       H  0.73519221  0.25243087  0.70535270     0.16000
O3027       O  0.74308975  0.19988431  0.75140064    -0.60000
H3028       H  0.72208578  0.18036146  0.72437401     0.14500
H3029       H  0.64515760  0.18082284  0.68170221     0.46300
H3030       H  0.72262770  0.23024943  0.66864513     0.41700
H3031       H  0.73032498  0.19940084  0.75967788     0.45200
H3032       H  0.74215341  0.17521184  0.67433620     0.36600
C3033       C  0.40340447  0.68111703  0.90838614    -0.27600
C3034       C  0.42379990  0.67503960  0.90484545     0.02000
C3035       C  0.42928175  0.66714049  0.88553559     0.30100
C3036       C  0.41418057  0.66351475  0.87089358    -0.19400
C3037       C  0.39365177  0.66837974  0.87489347    -0.28800
C3038       C  0.38833894  0.67797445  0.89343354     0.44100
C3039       C  0.43869307  0.67441951  0.92192190     0.05300
O3040       O  0.44922721  0.66189281  0.88123625    -0.57300
H3041       H  0.41840058  0.65621358  0.85662769     0.18200
O3042       O  0.36832575  0.68313064  0.89756367    -0.64000
H3043       H  0.39890428  0.68713514  0.92316057     0.16700
C3044       C  0.44300352  0.69169645  0.93398046     0.28900
C3045       C  0.45739974  0.69028386  0.94987914    -0.24900
C3046       C  0.46747774  0.67168432  0.95411448    -0.24200
C3047       C  0.46300031  0.65442301  0.94194822     0.40400
C3048       C  0.44858992  0.65585978  0.92626258    -0.26700
O3049       O  0.43386482  0.71015758  0.92981803    -0.58600
H3050       H  0.46067253  0.70379811  0.95887808     0.16000
O3051       O  0.47276374  0.63606239  0.94499752    -0.60000
H3052       H  0.44518347  0.64232618  0.91732351     0.14500
H3053       H  0.36229291  0.67095958  0.90433056     0.46300
H3054       H  0.42327943  0.71194692  0.94059169     0.41700
H3055       H  0.48511122  0.63655248  0.93610920     0.45200
H3056       H  0.45616326  0.67496820  0.87785972     0.36600
C3057       C  0.39519335  0.58517401  0.81408547    -0.27600
C3058       C  0.41613771  0.58966155  0.81175118     0.02000
C3059       C  0.42293195  0.60996537  0.81402846     0.30100
C3060       C  0.40898125  0.62529612  0.81960443    -0.19400
C3061       C  0.38827085  0.62057184  0.82292153    -0.28800
C3062       C  0.38125690  0.60052094  0.81959532     0.44100
C3063       C  0.43111279  0.57277000  0.80982909     0.05300
O3064       O  0.44336527  0.61468741  0.81213534    -0.57300
H3065       H  0.41452231  0.64065824  0.82239245     0.18200
O3066       O  0.36116785  0.59545743  0.82335223    -0.64000
H3067       H  0.38985013  0.56955299  0.81259386     0.16700
C3068       C  0.43413490  0.55926868  0.82631405     0.28900
C3069       C  0.44900403  0.54392249  0.82501901    -0.24900
C3070       C  0.46125649  0.54175975  0.80741785    -0.24200
C3071       C  0.45819403  0.55534331  0.79086172     0.40400
C3072       C  0.44318409  0.57071663  0.79216850    -0.26700
O3073       O  0.42288960  0.56124040  0.84397366    -0.58600
H3074       H  0.45106654  0.53379249  0.83799427     0.16000
O3075       O  0.47006879  0.55410562  0.77356813    -0.60000
H3076       H  0.44112095  0.58121803  0.77949249     0.14500
H3077       H  0.35370698  0.59900853  0.81060862     0.46300
H3078       H  0.43019786  0.57171892  0.85216049     0.41700
H3079       H  0.48229231  0.56266799  0.77645286     0.45200
H3080       H  0.44915399  0.61307527  0.82608145     0.36600
C3081       C  0.36043099  0.59897136  0.91110691    -0.27600
C3082       C  0.34490214  0.58448700  0.90826765     0.02000
C3083       C  0.33113868  0.58667351  0.89183277     0.30100
C3084       C  0.33370705  0.60275400  0.87787486    -0.19400
C3085       C  0.34995070  0.61670772  0.88015994    -0.28800
C3086       C  0.36293665  0.61508348  0.89734625     0.44100
C3087       C  0.34429033  0.56651895  0.92187488     0.05300
O3088       O  0.31566846  0.57276902  0.88887455    -0.57300
H3089       H  0.32352931  0.60380718  0.86480861     0.18200
O3090       O  0.37832156  0.62898862  0.90072794    -0.64000
H3091       H  0.37088981  0.59758900  0.92393493     0.16700
C3092       C  0.36147487  0.55353924  0.92322960     0.28900
C3093       C  0.36150555  0.53735381  0.93710023    -0.24900
C3094       C  0.34440411  0.53359789  0.94962748    -0.24200
C3095       C  0.32695984  0.54632276  0.94794479     0.40400
C3096       C  0.32703880  0.56273956  0.93414351    -0.26700
O3097       O  0.37841837  0.55668501  0.91114019    -0.58600
H3098       H  0.37497471  0.52763602  0.93796988     0.16000
O3099       O  0.31025135  0.54354050  0.96042861    -0.60000
H3100       H  0.31382657  0.57280338  0.93334148     0.14500
H3101       H  0.37397641  0.63689963  0.91292433     0.46300
H3102       H  0.37546521  0.54933708  0.89820465     0.41700
H3103       H  0.30019717  0.53586158  0.95203396     0.45200
H3104       H  0.32180824  0.56182532  0.88032506     0.36600
C3105       C  0.32596222  0.70173921  0.80493418    -0.27600
C3106       C  0.30477388  0.69839031  0.80591197     0.02000
C3107       C  0.29709785  0.68256722  0.81827868     0.30100
C3108       C  0.31066588  0.67017582  0.82937314    -0.19400
C3109       C  0.33207417  0.67332292  0.82835772    -0.28800
C3110       C  0.33955248  0.68926946  0.81571478     0.44100
C3111       C  0.29119849  0.71045455  0.79246361     0.05300
O3112       O  0.27648788  0.67819710  0.81846915    -0.57300
H3113       H  0.30408946  0.65777049  0.83802645     0.18200
O3114       O  0.36023988  0.69278828  0.81374342    -0.64000
H3115       H  0.33204972  0.71383262  0.79532749     0.16700
C3116       C  0.27484629  0.72208782  0.80022247     0.28900
C3117       C  0.26279354  0.73381206  0.78695461    -0.24900
C3118       C  0.26746047  0.73526011  0.76584204    -0.24200
C3119       C  0.28342172  0.72251335  0.75816234     0.40400
C3120       C  0.29505568  0.71046036  0.77143604    -0.26700
O3121       O  0.27062986  0.72229005  0.82078801    -0.58600
H3122       H  0.24976000  0.74164292  0.79351719     0.16000
O3123       O  0.28797455  0.72197205  0.73764979    -0.60000
H3124       H  0.30736723  0.70115782  0.76523812     0.14500
H3125       H  0.36429025  0.68600979  0.80078239     0.46300
H3126       H  0.27773401  0.73457130  0.82616076     0.41700
H3127       H  0.30198555  0.72774980  0.73624647     0.45200
H3128       H  0.27160094  0.68214087  0.83229366     0.36600
C3129       C  0.67142615  0.58901311  0.90792876    -0.27600
C3130       C  0.68699362  0.57528039  0.90250507     0.02000
C3131       C  0.69803783  0.57811723  0.88426419     0.30100
C3132       C  0.69298344  0.59441193  0.87130615    -0.19400
C3133       C  0.67701890  0.60791063  0.87650956    -0.28800
C3134       C  0.66648671  0.60534527  0.89516482     0.44100
C3135       C  0.69077961  0.55770119  0.91591476     0.05300
O3136       O  0.71299704  0.56448724  0.87854513    -0.57300
H3137       H  0.70104904  0.59610684  0.85689712     0.18200
O3138       O  0.65127817  0.61863738  0.90105689    -0.64000
H3139       H  0.66299455  0.58694414  0.92209076     0.16700
C3140       C  0.70782870  0.55725440  0.92906699     0.28900
C3141       C  0.70932891  0.54194457  0.94396078    -0.24900
C3142       C  0.69369804  0.52731505  0.94606281    -0.24200
C3143       C  0.67716864  0.52726040  0.93213029     0.40400
C3144       C  0.67576933  0.54247237  0.91725549    -0.26700
O3145       O  0.72254928  0.57221357  0.92806890    -0.58600
H3146       H  0.72216239  0.54212384  0.95450340     0.16000
O3147       O  0.66204739  0.51269757  0.93320757    -0.60000
H3148       H  0.66260137  0.54278442  0.90711812     0.14500
H3149       H  0.65852731  0.63033601  0.90743707     0.46300
H3150       H  0.71739320  0.58340707  0.93693431     0.41700
H3151       H  0.66744808  0.50085218  0.92539493     0.45200
H3152       H  0.72605600  0.57053342  0.88344205     0.36600
C3153       C  0.61703088  0.67246467  0.90734271    -0.27600
C3154       C  0.59773383  0.66320636  0.90542411     0.02000
C3155       C  0.59319715  0.65144514  0.88803537     0.30100
C3156       C  0.60830465  0.64819248  0.87324123    -0.19400
C3157       C  0.62794437  0.65659031  0.87558841    -0.28800
C3158       C  0.63216648  0.66925828  0.89248066     0.44100
C3159       C  0.58286930  0.66465458  0.92226768     0.05300
O3160       O  0.57401486  0.64315581  0.88545041    -0.57300
H3161       H  0.60483157  0.63865701  0.86013370     0.18200
O3162       O  0.65144759  0.67713545  0.89544334    -0.64000
H3163       H  0.62060874  0.68147221  0.92078459     0.16700
C3164       C  0.57797866  0.64722606  0.93385735     0.28900
C3165       C  0.56342533  0.64858418  0.94947295    -0.24900
C3166       C  0.55349581  0.66720836  0.95371727    -0.24200
C3167       C  0.55872047  0.68475988  0.94220842     0.40400
C3168       C  0.57344712  0.68338853  0.92668213    -0.26700
O3169       O  0.58791032  0.62900380  0.93042932    -0.58600
H3170       H  0.55997543  0.63497038  0.95829844     0.16000
O3171       O  0.54943655  0.70325496  0.94579779    -0.60000
H3172       H  0.57726139  0.69687790  0.91780958     0.14500
H3173       H  0.65046358  0.69167958  0.89121478     0.46300
H3174       H  0.57741404  0.61976052  0.92451447     0.41700
H3175       H  0.53720225  0.70344432  0.93676559     0.45200
H3176       H  0.57579600  0.62820007  0.88732672     0.36600
C3177       C  0.61950207  0.57687971  0.82212715    -0.27600
C3178       C  0.60173209  0.58411541  0.81234763     0.02000
C3179       C  0.60057825  0.60485559  0.80652464     0.30100
C3180       C  0.61640824  0.61833715  0.81198546    -0.19400
C3181       C  0.63338317  0.61125738  0.82312177    -0.28800
C3182       C  0.63525338  0.59028321  0.82750674     0.44100
C3183       C  0.58361203  0.57049720  0.81115399     0.05300
O3184       O  0.58320679  0.61243398  0.79738163    -0.57300
H3185       H  0.61474319  0.63452831  0.80879975     0.18200
O3186       O  0.65179486  0.58295889  0.83826369    -0.64000
H3187       H  0.62064881  0.56093875  0.82657116     0.16700
C3188       C  0.57424251  0.56542065  0.79246588     0.28900
C3189       C  0.55749043  0.55194033  0.79220006    -0.24900
C3190       C  0.54984708  0.54327088  0.81044642    -0.24200
C3191       C  0.55908717  0.54884833  0.82918283     0.40400
C3192       C  0.57582691  0.56218857  0.82935724    -0.26700
O3193       O  0.58159355  0.57317973  0.77438408    -0.58600
H3194       H  0.55072308  0.54800676  0.77759102     0.16000
O3195       O  0.55240229  0.54088807  0.84743210    -0.60000
H3196       H  0.58284114  0.56606694  0.84388113     0.14500
H3197       H  0.66316291  0.58218066  0.82818581     0.46300
H3198       H  0.59130320  0.56270272  0.76918168     0.41700
H3199       H  0.54262031  0.55115471  0.85291982     0.45200
H3200       H  0.58711924  0.61496057  0.78292856     0.36600
C3201       C  0.68902577  0.69444471  0.80069502    -0.27600
C3202       C  0.71034469  0.69509642  0.80315708     0.02000
C3203       C  0.71974187  0.68265205  0.81797644     0.30100
C3204       C  0.70783575  0.66907616  0.82952064    -0.19400
C3205       C  0.68644022  0.66759077  0.82642549    -0.28800
C3206       C  0.67708498  0.68110789  0.81230885     0.44100
C3207       C  0.72240615  0.70860672  0.78969142     0.05300
O3208       O  0.74041960  0.68424612  0.82177873    -0.57300
H3209       H  0.71572509  0.66007390  0.84086512     0.18200
O3210       O  0.65622349  0.68096863  0.80931182    -0.64000
H3211       H  0.68159492  0.70412612  0.78943116     0.16700
C3212       C  0.73792502  0.70071630  0.77706377     0.28900
C3213       C  0.74791755  0.71347848  0.76317226    -0.24900
C3214       C  0.74170778  0.73404670  0.76026261    -0.24200
C3215       C  0.72662844  0.74200360  0.77388033     0.40400
C3216       C  0.71724095  0.72931984  0.78833247    -0.26700
O3217       O  0.74315736  0.68038876  0.77778643    -0.58600
H3218       H  0.76061004  0.70688547  0.75486807     0.16000
O3219       O  0.72097270  0.76224028  0.77314220    -0.60000
H3220       H  0.70549215  0.73562338  0.79825824     0.14500
H3221       H  0.65091979  0.69286604  0.81710864     0.46300
H3222       H  0.73313520  0.67341058  0.76876113     0.41700
H3223       H  0.70634610  0.76245101  0.76893947     0.45200
H3224       H  0.74645187  0.67093661  0.81763208     0.36600
C3225       C  0.70658236  0.41789847  0.92751578    -0.27600
C3226       C  0.68714070  0.41177050  0.92074410     0.02000
C3227       C  0.66948239  0.42112883  0.92892200     0.30100
C3228       C  0.67138686  0.43613507  0.94389968    -0.19400
C3229       C  0.69081928  0.44238312  0.95080271    -0.28800
C3230       C  0.70854917  0.43311479  0.94240506     0.44100
C3231       C  0.68509985  0.39600428  0.90477255     0.05300
O3232       O  0.65024817  0.41592855  0.92212756    -0.57300
H3233       H  0.65751579  0.44306785  0.94989881     0.18200
O3234       O  0.72786972  0.43899164  0.94829671    -0.64000
H3235       H  0.72027581  0.41082056  0.92128467     0.16700
C3236       C  0.69405854  0.39866531  0.88533423     0.28900
C3237       C  0.68887590  0.38537146  0.86940495    -0.24900
C3238       C  0.67481851  0.36948546  0.87272192    -0.24200
C3239       C  0.66699592  0.36599971  0.89245250     0.40400
C3240       C  0.67234009  0.37911543  0.90839703    -0.26700
O3241       O  0.70644977  0.41515619  0.88134855    -0.58600
H3242       H  0.69490871  0.38816630  0.85419765     0.16000
O3243       O  0.65411914  0.34982128  0.89623221    -0.60000
H3244       H  0.66578783  0.37663348  0.92344646     0.14500
H3245       H  0.73176909  0.42936303  0.95937752     0.46300
H3246       H  0.72065689  0.40967620  0.88159292     0.41700
H3247       H  0.64022775  0.35588096  0.89774664     0.45200
H3248       H  0.64807122  0.42420382  0.90958082     0.36600
C3249       C  0.60232691  0.39793227  0.80171249    -0.27600
C3250       C  0.60178132  0.41492735  0.81478022     0.02000
C3251       C  0.61586297  0.41620796  0.83105948     0.30100
C3252       C  0.62950395  0.40012053  0.83474369    -0.19400
C3253       C  0.62943485  0.38266616  0.82226619    -0.28800
C3254       C  0.61598859  0.38179797  0.80540097     0.44100
C3255       C  0.58495308  0.42997158  0.81293449     0.05300
O3256       O  0.61585219  0.43278737  0.84391633    -0.57300
H3257       H  0.63991878  0.40111709  0.84763385     0.18200
O3258       O  0.61523860  0.36480125  0.79313834    -0.64000
H3259       H  0.59138369  0.39666955  0.78929810     0.16700
C3260       C  0.58213334  0.44177662  0.79515249     0.28900
C3261       C  0.56574531  0.45567478  0.79401478    -0.24900
C3262       C  0.55198052  0.45789800  0.81046953    -0.24200
C3263       C  0.55483877  0.44582553  0.82818957     0.40400
C3264       C  0.57114646  0.43200701  0.82923618    -0.26700
O3265       O  0.59574048  0.44037799  0.77918378    -0.58600
H3266       H  0.56399791  0.46492400  0.78035737     0.16000
O3267       O  0.54140375  0.44686212  0.84434286    -0.60000
H3268       H  0.57294082  0.42266889  0.84284053     0.14500
H3269       H  0.60640672  0.35491166  0.80056634     0.46300
H3270       H  0.58900804  0.43133309  0.76903802     0.41700
H3271       H  0.54828325  0.45560962  0.85465796     0.45200
H3272       H  0.62360222  0.44355251  0.83651317     0.36600
C3273       C  0.61385282  0.30244608  0.89104451    -0.27600
C3274       C  0.59562666  0.31345690  0.89437940     0.02000
C3275       C  0.59040629  0.32942927  0.88080367     0.30100
C3276       C  0.60414419  0.33539133  0.86549566    -0.19400
C3277       C  0.62296436  0.32526898  0.86300693    -0.28800
C3278       C  0.62741479  0.30812088  0.87534741     0.44100
C3279       C  0.58338627  0.31002822  0.91327234     0.05300
O3280       O  0.57228362  0.33993108  0.88297511    -0.57300
H3281       H  0.60034199  0.34839136  0.85589899     0.18200
O3282       O  0.64581271  0.29805637  0.87351351    -0.64000
H3283       H  0.61820853  0.29021828  0.90136922     0.16700
C3284       C  0.57607210  0.29056892  0.91897439     0.28900
C3285       C  0.56381730  0.28840229  0.93655476    -0.24900
C3286       C  0.55878771  0.30544920  0.94876202    -0.24200
C3287       C  0.56697773  0.32472896  0.94341354     0.40400
C3288       C  0.57919097  0.32680252  0.92596604    -0.26700
O3289       O  0.57984483  0.27383313  0.90688892    -0.58600
H3290       H  0.55772523  0.27342869  0.94023588     0.16000
O3291       O  0.56326078  0.34173298  0.95513693    -0.60000
H3292       H  0.58530341  0.34176126  0.92221570     0.14500
H3293       H  0.64262656  0.28537728  0.86583135     0.46300
H3294       H  0.59036803  0.26576288  0.91433955     0.41700
H3295       H  0.55206401  0.34917721  0.94801034     0.45200
H3296       H  0.56198243  0.33177150  0.87537069     0.36600
C3297       C  0.67861441  0.30082103  0.77975622    -0.27600
C3298       C  0.69988011  0.29853027  0.78142858     0.02000
C3299       C  0.71065995  0.30935481  0.79644877     0.30100
C3300       C  0.70017130  0.32213496  0.80992661    -0.19400
C3301       C  0.67863060  0.32423087  0.80892770    -0.28800
C3302       C  0.66799422  0.31372700  0.79319662     0.44100
C3303       C  0.71105422  0.28413384  0.76828313     0.05300
O3304       O  0.73155103  0.30723540  0.79829032    -0.57300
H3305       H  0.70933944  0.32990190  0.82115750     0.18200
O3306       O  0.64706704  0.31541812  0.79132804    -0.64000
H3307       H  0.67023512  0.29244595  0.76815948     0.16700
C3308       C  0.71168150  0.26331703  0.77321733     0.28900
C3309       C  0.72565674  0.25052180  0.76331066    -0.24900
C3310       C  0.73996699  0.25824018  0.74892829    -0.24200
C3311       C  0.73712735  0.27882690  0.74221926     0.40400
C3312       C  0.72328695  0.29163967  0.75243204    -0.26700
O3313       O  0.69931376  0.25553141  0.78833934    -0.58600
H3314       H  0.72616408  0.23462247  0.76784159     0.16000
O3315       O  0.74734278  0.28667773  0.72562043    -0.60000
H3316       H  0.72229877  0.30763052  0.74812888     0.14500
H3317       H  0.64482670  0.32514619  0.77988456     0.46300
H3318       H  0.70776371  0.25591719  0.80095575     0.41700
H3319       H  0.73692073  0.28784063  0.71461781     0.45200
H3320       H  0.73356546  0.29516809  0.80729110     0.36600
C3321       C  0.40973623  0.39621975  0.79535029    -0.27600
C3322       C  0.42942564  0.39755402  0.80401334     0.02000
C3323       C  0.43699004  0.38106019  0.81560224     0.30100
C3324       C  0.42433693  0.36444901  0.82000197    -0.19400
C3325       C  0.40404621  0.36378643  0.81291690    -0.28800
C3326       C  0.39702342  0.37937590  0.79968087     0.44100
C3327       C  0.44094243  0.41707280  0.80375323     0.05300
O3328       O  0.45626422  0.38177014  0.82402574    -0.57300
H3329       H  0.43006665  0.35262724  0.83005387     0.18200
O3330       O  0.37714913  0.37943527  0.79275415    -0.64000
H3331       H  0.40371451  0.40886032  0.78644083     0.16700
C3332       C  0.44962285  0.42509076  0.78577445     0.28900
C3333       C  0.46198893  0.44266730  0.78673711    -0.24900
C3334       C  0.46584716  0.45252432  0.80554810    -0.24200
C3335       C  0.45660969  0.44456789  0.82344696     0.40400
C3336       C  0.44422686  0.42715803  0.82237167    -0.26700
O3337       O  0.44703993  0.41525588  0.76743666    -0.58600
H3338       H  0.46896357  0.44827254  0.77276516     0.16000
O3339       O  0.45957648  0.45356482  0.84216226    -0.60000
H3340       H  0.43747351  0.42117940  0.83631650     0.14500
H3341       H  0.37779997  0.37325149  0.77892035     0.46300
H3342       H  0.43531479  0.42229771  0.76077560     0.41700
H3343       H  0.47073243  0.44556103  0.84872394     0.45200
H3344       H  0.46570180  0.37762910  0.81285330     0.36600
C3345       C  0.34609243  0.38391016  0.89666691    -0.27600
C3346       C  0.35780169  0.40188033  0.89513417     0.02000
C3347       C  0.37167486  0.40411404  0.87875802     0.30100
C3348       C  0.37396415  0.38838243  0.86446256    -0.19400
C3349       C  0.36253190  0.37026250  0.86616613    -0.28800
C3350       C  0.34843656  0.36811413  0.88238257     0.44100
C3351       C  0.35612516  0.41777425  0.91119329     0.05300
O3352       O  0.38322501  0.42153514  0.87672851    -0.57300
H3353       H  0.38482096  0.39031988  0.85203050     0.18200
O3354       O  0.33753161  0.35035326  0.88491997    -0.64000
H3355       H  0.33559542  0.38184688  0.90937154     0.16700
C3356       C  0.33719217  0.42708593  0.91576026     0.28900
C3357       C  0.33587900  0.44157131  0.93149514    -0.24900
C3358       C  0.35329334  0.44697727  0.94299217    -0.24200
C3359       C  0.37235758  0.43776912  0.93813632     0.40400
C3360       C  0.37359252  0.42327851  0.92242946    -0.26700
O3361       O  0.32003261  0.42257807  0.90447742    -0.58600
H3362       H  0.32113959  0.44859252  0.93466432     0.16000
O3363       O  0.38975475  0.44216806  0.94910379    -0.60000
H3364       H  0.38822961  0.41604540  0.91921814     0.14500
H3365       H  0.34659221  0.34127706  0.89308788     0.46300
H3366       H  0.31175385  0.41332855  0.91324099     0.41700
H3367       H  0.39729783  0.45236227  0.94073532     0.45200
H3368       H  0.37479454  0.43089296  0.86822049     0.36600
C3369       C  0.44932253  0.28532264  0.92411993    -0.27600
C3370       C  0.44773892  0.30362378  0.91296600     0.02000
C3371       C  0.45954863  0.32062015  0.91883919     0.30100
C3372       C  0.47288638  0.31912032  0.93546701    -0.19400
C3373       C  0.47483126  0.30077210  0.94653396    -0.28800
C3374       C  0.46278974  0.28378672  0.94080162     0.44100
C3375       C  0.43308325  0.30543530  0.89580067     0.05300
O3376       O  0.45736117  0.33907634  0.90901394    -0.57300
H3377       H  0.48179798  0.33246526  0.93964162     0.18200
O3378       O  0.46379460  0.26576178  0.95151323    -0.64000
H3379       H  0.44006621  0.27223263  0.91988785     0.16700
C3380       C  0.43981946  0.31153158  0.87623405     0.28900
C3381       C  0.42549142  0.31661821  0.86117346    -0.24900
C3382       C  0.40443612  0.31545328  0.86526954    -0.24200
C3383       C  0.39765067  0.30794505  0.88428071     0.40400
C3384       C  0.41198827  0.30299730  0.89946223    -0.26700
O3385       O  0.46036369  0.31332727  0.87196135    -0.58600
H3386       H  0.43083307  0.32181607  0.84639121     0.16000
O3387       O  0.37707759  0.30691402  0.88867094    -0.60000
H3388       H  0.40661047  0.29830598  0.91444381     0.14500
H3389       H  0.45388448  0.26737244  0.96293464     0.46300
H3390       H  0.46478717  0.29945586  0.86768057     0.41700
H3391       H  0.37310037  0.29258884  0.88568012     0.45200
H3392       H  0.47036110  0.34117098  0.90137514     0.36600
C3393       C  0.31582261  0.31523384  0.79056553    -0.27600
C3394       C  0.31335886  0.29409207  0.79247628     0.02000
C3395       C  0.32526348  0.28321540  0.80663573     0.30100
C3396       C  0.34020427  0.29335789  0.81809408    -0.19400
C3397       C  0.34364118  0.31457720  0.81566089    -0.28800
C3398       C  0.33073331  0.32550793  0.80202697     0.44100
C3399       C  0.29879592  0.28332759  0.77913578     0.05300
O3400       O  0.32251806  0.26256297  0.80924137    -0.57300
H3401       H  0.34875139  0.28419415  0.82879416     0.18200
O3402       O  0.33253241  0.34632475  0.79989143    -0.64000
H3403       H  0.30640546  0.32375019  0.77985487     0.16700
C3404       C  0.27761103  0.28495347  0.78223565     0.28900
C3405       C  0.26415722  0.27428121  0.76954130    -0.24900
C3406       C  0.27138024  0.26110683  0.75392894    -0.24200
C3407       C  0.29288716  0.26140555  0.74972124     0.40400
C3408       C  0.30628147  0.27184734  0.76274771    -0.26700
O3409       O  0.26994795  0.29632256  0.79813339    -0.58600
H3410       H  0.24788173  0.27565189  0.77250195     0.16000
O3411       O  0.30113643  0.25238441  0.73264630    -0.60000
H3412       H  0.32264593  0.27140449  0.75971402     0.14500
H3413       H  0.33859564  0.34852083  0.78613375     0.46300
H3414       H  0.26670345  0.30988343  0.79212406     0.41700
H3415       H  0.30425814  0.26376201  0.72309051     0.45200
H3416       H  0.31178277  0.26129159  0.81994203     0.36600
C3417       C  0.41252540  0.40083833  0.17650577    -0.27600
C3418       C  0.43366050  0.39723158  0.17492754     0.02000
C3419       C  0.44088943  0.37810595  0.16825758     0.30100
C3420       C  0.42690200  0.36293894  0.16264803    -0.19400
C3421       C  0.40575855  0.36675945  0.16355486    -0.28800
C3422       C  0.39853904  0.38571552  0.17080521     0.44100
C3423       C  0.44792121  0.41440356  0.17711009     0.05300
O3424       O  0.46156178  0.37443228  0.16646525    -0.57300
H3425       H  0.43255547  0.34837721  0.15715798     0.18200
O3426       O  0.37790490  0.38995318  0.17134997    -0.64000
H3427       H  0.40691762  0.41571474  0.18124670     0.16700
C3428       C  0.45134037  0.42738595  0.16036041     0.28900
C3429       C  0.46561942  0.44313211  0.16187870    -0.24900
C3430       C  0.47677352  0.44615787  0.18002144    -0.24200
C3431       C  0.47292838  0.43334879  0.19703353     0.40400
C3432       C  0.45863046  0.41744585  0.19540975    -0.26700
O3433       O  0.44087943  0.42463587  0.14235334    -0.58600
H3434       H  0.46810480  0.45285974  0.14867233     0.16000
O3435       O  0.48366076  0.43559445  0.21493535    -0.60000
H3436       H  0.45606288  0.40734502  0.20831842     0.14500
H3437       H  0.37441349  0.39465502  0.15733662     0.46300
H3438       H  0.44936261  0.41492267  0.13431341     0.41700
H3439       H  0.47484213  0.44431707  0.22371908     0.45200
H3440       H  0.46512903  0.37847133  0.15226660     0.36600
C3441       C  0.43986380  0.30941415  0.05075978    -0.27600
C3442       C  0.44178987  0.29511233  0.06661515     0.02000
C3443       C  0.45732317  0.28021699  0.06574034     0.30100
C3444       C  0.47125074  0.28022202  0.04939632    -0.19400
C3445       C  0.47022963  0.29543231  0.03421779    -0.28800
C3446       C  0.45406690  0.30979896  0.03471322     0.44100
C3447       C  0.42969631  0.29824947  0.08536545     0.05300
O3448       O  0.45937670  0.26606621  0.08111757    -0.57300
H3449       H  0.48354504  0.26903679  0.04921605     0.18200
O3450       O  0.45204691  0.32426012  0.01960336    -0.64000
H3451       H  0.42794694  0.32099432  0.05140994     0.16700
C3452       C  0.43780671  0.31052507  0.10099454     0.28900
C3453       C  0.42522950  0.31693887  0.11702481    -0.24900
C3454       C  0.40448658  0.31127473  0.11776346    -0.24200
C3455       C  0.39667887  0.29785724  0.10277436     0.40400
C3456       C  0.40930270  0.29153692  0.08656253    -0.26700
O3457       O  0.45750747  0.31783228  0.09970769    -0.58600
H3458       H  0.43143658  0.32734209  0.12827922     0.16000
O3459       O  0.37628381  0.29266572  0.10258290    -0.60000
H3460       H  0.40289591  0.28231050  0.07437967     0.14500
H3461       H  0.45729916  0.33714408  0.02564915     0.46300
H3462       H  0.46590531  0.30819561  0.10792661     0.41700
H3463       H  0.37570534  0.27873839  0.10858744     0.45200
H3464       H  0.46966847  0.27193725  0.09061619     0.36600
C3465       C  0.37242526  0.37607441  0.07207676    -0.27600
C3466       C  0.35976836  0.39327634  0.07462180     0.02000
C3467       C  0.35023232  0.39676792  0.09363827     0.30100
C3468       C  0.35340436  0.38316829  0.10978920    -0.19400
C3469       C  0.36633223  0.36619522  0.10738358    -0.28800
C3470       C  0.37588339  0.36261910  0.08838490     0.44100
C3471       C  0.35743714  0.40822842  0.05785643     0.05300
O3472       O  0.33818809  0.41371913  0.09673090    -0.57300
H3473       H  0.34613488  0.38614688  0.12441220     0.18200
O3474       O  0.38785022  0.34559128  0.08537530    -0.64000
H3475       H  0.37970738  0.37315301  0.05745092     0.16700
C3476       C  0.37472275  0.41814768  0.04966308     0.28900
C3477       C  0.37218247  0.43378371  0.03534701    -0.24900
C3478       C  0.35247265  0.43998086  0.02903535    -0.24200
C3479       C  0.33515677  0.42958034  0.03688542     0.40400
C3480       C  0.33777098  0.41377531  0.05109696    -0.26700
O3481       O  0.39416299  0.41312225  0.05602788    -0.58600
H3482       H  0.38577796  0.44134082  0.02950908     0.16000
O3483       O  0.31562411  0.43474484  0.03095450    -0.60000
H3484       H  0.32435811  0.40609814  0.05721517     0.14500
H3485       H  0.40220618  0.35063919  0.08511582     0.46300
H3486       H  0.39638209  0.42111281  0.06872669     0.41700
H3487       H  0.31059040  0.44432856  0.04159918     0.45200
H3488       H  0.34784995  0.42470815  0.10078349     0.36600
C3489       C  0.33556634  0.29687373  0.19442798    -0.27600
C3490       C  0.31477507  0.30183103  0.19220381     0.02000
C3491       C  0.30892609  0.31689293  0.17801974     0.30100
C3492       C  0.32377848  0.32614792  0.16563387    -0.19400
C3493       C  0.34466699  0.32049402  0.16702048    -0.28800
C3494       C  0.35044420  0.30621053  0.18223766     0.44100
C3495       C  0.29948552  0.29075804  0.20464378     0.05300
O3496       O  0.28886129  0.32329339  0.17684138    -0.57300
H3497       H  0.31853967  0.33798426  0.15542451     0.18200
O3498       O  0.37066208  0.30099223  0.18508975    -0.64000
H3499       H  0.34028764  0.28547498  0.20553384     0.16700
C3500       C  0.28359941  0.27963725  0.19539278     0.28900
C3501       C  0.27038279  0.26785031  0.20736132    -0.24900
C3502       C  0.27320659  0.26586479  0.22876602    -0.24200
C3503       C  0.28871132  0.27810936  0.23795342     0.40400
C3504       C  0.30164689  0.29020610  0.22590709    -0.26700
O3505       O  0.28100135  0.27989360  0.17456463    -0.58600
H3506       H  0.25776410  0.26055288  0.19954725     0.16000
O3507       O  0.29121483  0.27849774  0.25879498    -0.60000
H3508       H  0.31362196  0.29906613  0.23323301     0.14500
H3509       H  0.37527459  0.30917712  0.19699728     0.46300
H3510       H  0.29037259  0.26916271  0.16926298     0.41700
H3511       H  0.30492050  0.27242086  0.26148253     0.45200
H3512       H  0.28407129  0.31932445  0.16299831     0.36600
C3513       C  0.57412045  0.64728069  0.06680737    -0.27600
C3514       C  0.59048906  0.66105292  0.06502737     0.02000
C3515       C  0.58981086  0.67659932  0.05020346     0.30100
C3516       C  0.57274103  0.67829170  0.03733151    -0.19400
C3517       C  0.55634292  0.66444198  0.03897852    -0.28800
C3518       C  0.55708824  0.64887900  0.05390383     0.44100
C3519       C  0.60816534  0.65895897  0.07884528     0.05300
O3520       O  0.60603656  0.68973514  0.04777108    -0.57300
H3521       H  0.57254199  0.69013314  0.02571181     0.18200
O3522       O  0.54122728  0.63525456  0.05608948    -0.64000
H3523       H  0.57456931  0.63529854  0.07827879     0.16700
C3524       C  0.60946222  0.67074236  0.09677181     0.28900
C3525       C  0.62535995  0.66718388  0.11073629    -0.24900
C3526       C  0.63984730  0.65170787  0.10709160    -0.24200
C3527       C  0.63894765  0.64049155  0.08868146     0.40400
C3528       C  0.62309265  0.64410445  0.07475150    -0.26700
O3529       O  0.59488262  0.68528732  0.10103876    -0.58600
H3530       H  0.62577951  0.67581304  0.12487523     0.16000
O3531       O  0.65322955  0.62567114  0.08434160    -0.60000
H3532       H  0.62218267  0.63502322  0.06091693     0.14500
H3533       H  0.53130388  0.64206699  0.06538069     0.46300
H3534       H  0.58399564  0.67794875  0.10871169     0.41700
H3535       H  0.66491077  0.63305365  0.07799550     0.45200
H3536       H  0.60283364  0.70161184  0.05664889     0.36600
C3537       C  0.68419573  0.56860996  0.10098546    -0.27600
C3538       C  0.69710941  0.57365772  0.08461866     0.02000
C3539       C  0.70646368  0.59298945  0.08380871     0.30100
C3540       C  0.70190896  0.60750500  0.09883319    -0.19400
C3541       C  0.68792359  0.60287875  0.11451747    -0.28800
C3542       C  0.67955565  0.58309333  0.11591649     0.44100
C3543       C  0.69788002  0.55986233  0.06700081     0.05300
O3544       O  0.71853826  0.59839708  0.06747502    -0.57300
H3545       H  0.70819885  0.62278613  0.09746683     0.18200
O3546       O  0.66604841  0.57808531  0.13123381    -0.64000
H3547       H  0.67688263  0.55373213  0.10157770     0.16700
C3548       C  0.71497683  0.54736807  0.06314831     0.28900
C3549       C  0.71447214  0.53359457  0.04680045    -0.24900
C3550       C  0.69684933  0.53193553  0.03444783    -0.24200
C3551       C  0.67994933  0.54492964  0.03818054     0.40400
C3552       C  0.68057737  0.55870440  0.05439820    -0.26700
O3553       O  0.73196015  0.54817465  0.07552247    -0.58600
H3554       H  0.72759354  0.52370852  0.04425630     0.16000
O3555       O  0.66260605  0.54412281  0.02630921    -0.60000
H3556       H  0.66737730  0.56839323  0.05734440     0.14500
H3557       H  0.67471822  0.57289377  0.14257865     0.46300
H3558       H  0.72898512  0.53864051  0.08696295     0.41700
H3559       H  0.66494582  0.55418921  0.01518435     0.45200
H3560       H  0.73253932  0.59363216  0.07107876     0.36600
C3561       C  0.62759836  0.58022452  0.18116631    -0.27600
C3562       C  0.60777623  0.58148212  0.17287601     0.02000
C3563       C  0.60245535  0.59812379  0.16030806     0.30100
C3564       C  0.61732002  0.61258290  0.15505551    -0.19400
C3565       C  0.63745604  0.61070424  0.16235011    -0.28800
C3566       C  0.64245971  0.59482858  0.17601376     0.44100
C3567       C  0.59347829  0.56422706  0.17522122     0.05300
O3568       O  0.58284936  0.60006448  0.15283089    -0.57300
H3569       H  0.61333927  0.62485617  0.14460500     0.18200
O3570       O  0.66220832  0.59242003  0.18287625    -0.64000
H3571       H  0.63182150  0.56733825  0.19073066     0.16700
C3572       C  0.58935460  0.55153467  0.15840279     0.28900
C3573       C  0.57506383  0.53576270  0.16024072    -0.24900
C3574       C  0.56454684  0.53243280  0.17873293    -0.24200
C3575       C  0.56905449  0.54497033  0.19574702     0.40400
C3576       C  0.58357631  0.56067896  0.19391682    -0.26700
O3577       O  0.59961238  0.55422321  0.14023440    -0.58600
H3578       H  0.57214814  0.52619240  0.14703412     0.16000
O3579       O  0.55912242  0.54232686  0.21406958    -0.60000
H3580       H  0.58675223  0.57041740  0.20693888     0.14500
H3581       H  0.66274075  0.59995620  0.19602314     0.46300
H3582       H  0.58933719  0.56000494  0.13063357     0.41700
H3583       H  0.54693710  0.55142324  0.21337743     0.45200
H3584       H  0.58384063  0.59695379  0.13801303     0.36600
C3585       C  0.69357204  0.69315402  0.18669904    -0.27600
C3586       C  0.71508354  0.69298219  0.18663871     0.02000
C3587       C  0.72547350  0.67937996  0.17357581     0.30100
C3588       C  0.71445202  0.66555478  0.16160060    -0.19400
C3589       C  0.69280117  0.66492188  0.16221128    -0.28800
C3590       C  0.68245127  0.67941321  0.17459826     0.44100
C3591       C  0.72654209  0.70592821  0.20129536     0.05300
O3592       O  0.74652098  0.67930756  0.17252884    -0.57300
H3593       H  0.72332466  0.65559021  0.15193418     0.18200
O3594       O  0.66138109  0.68022832  0.17498091    -0.64000
H3595       H  0.68531755  0.70356170  0.19664879     0.16700
C3596       C  0.72303535  0.72706917  0.20284740     0.28900
C3597       C  0.73297095  0.73841925  0.21804870    -0.24900
C3598       C  0.74594939  0.72897032  0.23265348    -0.24200
C3599       C  0.75136082  0.70811395  0.22908563     0.40400
C3600       C  0.74101223  0.69679038  0.21418829    -0.26700
O3601       O  0.70957327  0.73671992  0.18989864    -0.58600
H3602       H  0.72955569  0.75459909  0.21923647     0.16000
O3603       O  0.76679502  0.69848796  0.23969887    -0.60000
H3604       H  0.74437038  0.68060975  0.21277675     0.14500
H3605       H  0.65731396  0.67466280  0.18851647     0.46300
H3606       H  0.71790156  0.74068902  0.17782349     0.41700
H3607       H  0.77712869  0.69420741  0.22938843     0.45200
H3608       H  0.75007390  0.69054464  0.16295549     0.36600
C3609       C  0.70986983  0.42430366  0.06349449    -0.27600
C3610       C  0.69075535  0.41717620  0.07033198     0.02000
C3611       C  0.67272062  0.42446005  0.06091871     0.30100
C3612       C  0.67395493  0.43885799  0.04519703    -0.19400
C3613       C  0.69306896  0.44604464  0.03822944    -0.28800
C3614       C  0.71116063  0.43845615  0.04745726     0.44100
C3615       C  0.68957754  0.40199837  0.08711413     0.05300
O3616       O  0.65377092  0.41743149  0.06682892    -0.57300
H3617       H  0.65980129  0.44422228  0.03831975     0.18200
O3618       O  0.73018212  0.44496851  0.04124293    -0.64000
H3619       H  0.72386809  0.41895993  0.07069000     0.16700
C3620       C  0.70011017  0.38317759  0.08593538     0.28900
C3621       C  0.69659504  0.36805320  0.10072590    -0.24900
C3622       C  0.68263088  0.37150235  0.11667643    -0.24200
C3623       C  0.67317117  0.39076424  0.11859625     0.40400
C3624       C  0.67671722  0.40586332  0.10391112    -0.26700
O3625       O  0.71248274  0.37881436  0.06951207    -0.58600
H3626       H  0.70381013  0.35320239  0.09903430     0.16000
O3627       O  0.65983943  0.39472321  0.13436891    -0.60000
H3628       H  0.66889324  0.42044092  0.10528861     0.14500
H3629       H  0.73464421  0.43490737  0.03078948     0.46300
H3630       H  0.72672702  0.38002943  0.07473273     0.41700
H3631       H  0.66861448  0.39938710  0.14584099     0.45200
H3632       H  0.65124625  0.40516919  0.05827326     0.36600
C3633       C  0.62020472  0.38950467  0.18466162    -0.27600
C3634       C  0.60229222  0.39167865  0.17295348     0.02000
C3635       C  0.59855069  0.37804528  0.15675822     0.30100
C3636       C  0.61318821  0.36328733  0.15164068    -0.19400
C3637       C  0.63175242  0.36189664  0.16244578    -0.28800
C3638       C  0.63500207  0.37480033  0.17943315     0.44100
C3639       C  0.58902602  0.40981159  0.17569451     0.05300
O3640       O  0.58108721  0.37977266  0.14515633    -0.57300
H3641       H  0.61031801  0.35335665  0.13868793     0.18200
O3642       O  0.65310177  0.37415420  0.19013716    -0.64000
H3643       H  0.62330074  0.40006025  0.19704971     0.16700
C3644       C  0.57667828  0.41246275  0.19315269     0.28900
C3645       C  0.56366244  0.42954956  0.19458978    -0.24900
C3646       C  0.56287533  0.44412531  0.17873201    -0.24200
C3647       C  0.57588738  0.44169328  0.16163129     0.40400
C3648       C  0.58869909  0.42462205  0.16019790    -0.26700
O3649       O  0.57645841  0.39795114  0.20832214    -0.58600
H3650       H  0.55371020  0.43104863  0.20779830     0.16000
O3651       O  0.57612960  0.45584248  0.14611379    -0.60000
H3652       H  0.59840566  0.42285904  0.14682895     0.14500
H3653       H  0.66250112  0.38352999  0.18273972     0.46300
H3654       H  0.58648930  0.40282232  0.21862743     0.41700
H3655       H  0.58708746  0.46566865  0.14987069     0.45200
H3656       H  0.57077231  0.37106236  0.15213800     0.36600
C3657       C  0.58272401  0.28627023  0.06125009    -0.27600
C3658       C  0.59020875  0.30567678  0.06663877     0.02000
C3659       C  0.58097254  0.32317839  0.05808025     0.30100
C3660       C  0.56525661  0.32117076  0.04375452    -0.19400
C3661       C  0.55811502  0.30180462  0.03769230    -0.28800
C3662       C  0.56678825  0.28422837  0.04690628     0.44100
C3663       C  0.60773654  0.30792967  0.08096209     0.05300
O3664       O  0.58729195  0.34242998  0.06354794    -0.57300
H3665       H  0.55882598  0.33499343  0.03720173     0.18200
O3666       O  0.55973683  0.26503898  0.04222615    -0.64000
H3667       H  0.58952614  0.27264463  0.06784217     0.16700
C3668       C  0.60718033  0.29954259  0.10083508     0.28900
C3669       C  0.62255447  0.30455841  0.11496053    -0.24900
C3670       C  0.63849540  0.31787750  0.10947661    -0.24200
C3671       C  0.63975937  0.32524320  0.08932191     0.40400
C3672       C  0.62453222  0.32014530  0.07518942    -0.26700
O3673       O  0.59087118  0.28783003  0.10707282    -0.58600
H3674       H  0.62143797  0.29891722  0.13052215     0.16000
O3675       O  0.65542125  0.33801093  0.08349225    -0.60000
H3676       H  0.62542905  0.32636331  0.05983515     0.14500
H3677       H  0.56928368  0.25979575  0.03162068     0.46300
H3678       H  0.59609272  0.27357064  0.10724365     0.41700
H3679       H  0.66722061  0.32886684  0.08054557     0.45200
H3680       H  0.57923117  0.34586081  0.07596375     0.36600
C3681       C  0.72302509  0.27901997  0.22889296    -0.27600
C3682       C  0.73001619  0.27948034  0.20868761     0.02000
C3683       C  0.74768490  0.26849128  0.20329965     0.30100
C3684       C  0.75752429  0.25628400  0.21788257    -0.19400
C3685       C  0.74957435  0.25409013  0.23796451    -0.28800
C3686       C  0.73286091  0.26693799  0.24356362     0.44100
C3687       C  0.71828316  0.29112837  0.19333954     0.05300
O3688       O  0.75587221  0.27026108  0.18401448    -0.57300
H3689       H  0.77165116  0.24894065  0.21326165     0.18200
O3690       O  0.72516120  0.26676684  0.26309994    -0.64000
H3691       H  0.70958913  0.28780227  0.23325404     0.16700
C3692       C  0.70812948  0.28098812  0.17739221     0.28900
C3693       C  0.69528204  0.29192327  0.16419666    -0.24900
C3694       C  0.69228222  0.31317995  0.16657244    -0.24200
C3695       C  0.70325112  0.32332443  0.18228487     0.40400
C3696       C  0.71598813  0.31228038  0.19552645    -0.26700
O3697       O  0.70971939  0.26014537  0.17535476    -0.58600
H3698       H  0.68776760  0.28327795  0.15238984     0.16000
O3699       O  0.70159617  0.34411230  0.18480724    -0.60000
H3700       H  0.72389129  0.32022164  0.20775017     0.14500
H3701       H  0.72898571  0.28019161  0.26903482     0.46300
H3702       H  0.71813356  0.25793710  0.16289265     0.41700
H3703       H  0.69309277  0.34603886  0.19725844     0.45200
H3704       H  0.75395988  0.25668521  0.17753150     0.36600
C3705       C  0.44260764  0.68465075  0.06444299    -0.27600
C3706       C  0.43683648  0.66556897  0.07235802     0.02000
C3707       C  0.44710773  0.64782725  0.06578027     0.30100
C3708       C  0.46242182  0.64917768  0.05096971    -0.19400
C3709       C  0.46797039  0.66814795  0.04247454    -0.28800
C3710       C  0.45802815  0.68605317  0.04951758     0.44100
C3711       C  0.41960697  0.66376750  0.08689715     0.05300
O3712       O  0.44208462  0.62899391  0.07360941    -0.57300
H3713       H  0.46990008  0.63519390  0.04608645     0.18200
O3714       O  0.46298854  0.70492640  0.04179189    -0.64000
H3715       H  0.43477577  0.69839806  0.06944871     0.16700
C3716       C  0.42071123  0.67209960  0.10671736     0.28900
C3717       C  0.40579963  0.66688243  0.12130534    -0.24900
C3718       C  0.38984567  0.65343383  0.11619013    -0.24200
C3719       C  0.38805364  0.64625131  0.09601920     0.40400
C3720       C  0.40278155  0.65159049  0.08147639    -0.26700
O3721       O  0.43715646  0.68386856  0.11240841    -0.58600
H3722       H  0.40738777  0.67229225  0.13689032     0.16000
O3723       O  0.37213245  0.63368006  0.09052166    -0.60000
H3724       H  0.40163045  0.64537286  0.06615062     0.14500
H3725       H  0.45367702  0.70695547  0.02995495     0.46300
H3726       H  0.43253218  0.69820985  0.11054691     0.41700
H3727       H  0.37823629  0.61982219  0.08928584     0.45200
H3728       H  0.45067429  0.62742743  0.08604064     0.36600
C3729       C  0.45052579  0.55374884  0.19671928    -0.27600
C3730       C  0.44584079  0.56333459  0.17807123     0.02000
C3731       C  0.45672717  0.55762447  0.16034254     0.30100
C3732       C  0.47213021  0.54278735  0.16144436    -0.19400
C3733       C  0.47700283  0.53315436  0.18007871    -0.28800
C3734       C  0.46600649  0.53882792  0.19785599     0.44100
C3735       C  0.42954503  0.57917489  0.17690347     0.05300
O3736       O  0.45227809  0.56632087  0.14173973    -0.57300
H3737       H  0.48023330  0.53878135  0.14752705     0.18200
O3738       O  0.46981375  0.52954966  0.21629953    -0.64000
H3739       H  0.44226842  0.55795980  0.21048489     0.16700
C3740       C  0.40915470  0.57488257  0.18276929     0.28900
C3741       C  0.39354111  0.58910507  0.17866695    -0.24900
C3742       C  0.39803748  0.60751181  0.16860243    -0.24200
C3743       C  0.41851955  0.61229798  0.16382799     0.40400
C3744       C  0.43411887  0.59825575  0.16812671    -0.26700
O3745       O  0.40408104  0.55615325  0.19077461    -0.58600
H3746       H  0.37774456  0.58516971  0.18208922     0.16000
O3747       O  0.42330921  0.63021432  0.15398169    -0.60000
H3748       H  0.44976034  0.60190334  0.16379422     0.14500
H3749       H  0.47919840  0.53896651  0.22362712     0.46300
H3750       H  0.40241085  0.55849297  0.20567428     0.41700
H3751       H  0.42342247  0.64080409  0.16483449     0.45200
H3752       H  0.44031951  0.55857219  0.13646053     0.36600
C3753       C  0.35927766  0.56583212  0.10208720    -0.27600
C3754       C  0.34489290  0.56980676  0.08661231     0.02000
C3755       C  0.33273917  0.58759884  0.08773209     0.30100
C3756       C  0.33546030  0.60137341  0.10394498    -0.19400
C3757       C  0.35053488  0.59780635  0.11890688    -0.28800
C3758       C  0.36219255  0.57966721  0.11808797     0.44100
C3759       C  0.34405885  0.55603047  0.06866098     0.05300
O3760       O  0.31891379  0.59213857  0.07256609    -0.57300
H3761       H  0.32659990  0.61541437  0.10419440     0.18200
O3762       O  0.37681995  0.57550070  0.13259699    -0.64000
H3763       H  0.36867019  0.55214659  0.10144651     0.16700
C3764       C  0.36170029  0.55310620  0.05661722     0.28900
C3765       C  0.36150482  0.53905304  0.04058675    -0.24900
C3766       C  0.34377339  0.52769408  0.03597682    -0.24200
C3767       C  0.32578984  0.53116159  0.04762931     0.40400
C3768       C  0.32607024  0.54523037  0.06388523    -0.26700
O3769       O  0.37935730  0.56383358  0.06054220    -0.58600
H3770       H  0.37544431  0.53706465  0.03174736     0.16000
O3771       O  0.30814957  0.52037348  0.04386141    -0.60000
H3772       H  0.31237602  0.54736844  0.07307038     0.14500
H3773       H  0.36922301  0.56918164  0.14413629     0.46300
H3774       H  0.37815764  0.57655347  0.05233732     0.41700
H3775       H  0.29982437  0.52933558  0.03483681     0.45200
H3776       H  0.32692873  0.59960507  0.06202913     0.36600
C3777       C  0.29292098  0.69730079  0.22303463    -0.27600
C3778       C  0.29601363  0.69819974  0.20181880     0.02000
C3779       C  0.28639378  0.71391494  0.19064365     0.30100
C3780       C  0.27303588  0.72750487  0.20038208    -0.19400
C3781       C  0.26859119  0.72594748  0.22153489    -0.28800
C3782       C  0.27989810  0.71123880  0.23296202     0.44100
C3783       C  0.30955324  0.68300644  0.19148776     0.05300
O3784       O  0.29022100  0.71644415  0.17014690    -0.57300
H3785       H  0.26662479  0.73960291  0.19109207     0.18200
O3786       O  0.27832765  0.71042687  0.25391407    -0.64000
H3787       H  0.30050660  0.68560294  0.23203872     0.16700
C3788       C  0.32924449  0.67841813  0.19908176     0.28900
C3789       C  0.34184370  0.66443719  0.18881527    -0.24900
C3790       C  0.33534986  0.65463457  0.17071879    -0.24200
C3791       C  0.31594552  0.66019796  0.16258364     0.40400
C3792       C  0.30309364  0.67365480  0.17329283    -0.26700
O3793       O  0.33675087  0.68818021  0.21606778    -0.58600
H3794       H  0.35718553  0.66210200  0.19469525     0.16000
O3795       O  0.30992620  0.65387260  0.14349657    -0.60000
H3796       H  0.28812743  0.67720105  0.16697349     0.14500
H3797       H  0.27285752  0.69666063  0.25724924     0.46300
H3798       H  0.34341067  0.70077049  0.21080197     0.41700
H3799       H  0.29785023  0.64490655  0.14576843     0.45200
H3800       H  0.30289353  0.72481596  0.16943443     0.36600
loop_ 
_geom_bond_atom_site_label_1 
_geom_bond_atom_site_label_2 
_geom_bond_distance 
_geom_bond_site_symmetry_2 
_ccdc_geom_bond_type 
C1            C2   1.550       .  S
C1            C7   1.540       .  S
C1            C5   1.550       .  S
C1         C3790   1.531       .  S
C2            H9   1.083       .  S
C2            C3   1.366       .  D
C3            C4   1.531       .  S
C3         C3757   1.481       .  S
C4            C8   1.527       .  S
C4            C6   1.529       .  S
C4           H10   1.111       .  S
C5           H11   1.085       .  S
C5            C6   1.364       .  D
C6         C3742   1.474       .  S
C7           H12   1.086       .  S
C7            C8   1.360       .  D
C8         C3718   1.471       .  S
C13          C14   1.542       .  S
C13          C19   1.550       .  S
C13          C17   1.545       .  S
C13        C3694   1.528       .  S
C14          H21   1.086       .  S
C14          C15   1.362       .  D
C15          C16   1.528       .  S
C15        C3622   1.473       .  S
C16          C20   1.528       .  S
C16          C18   1.532       .  S
C16          H22   1.111       .  S
C17          H23   1.086       .  S
C17          C18   1.365       .  D
C18        C3637   1.482       .  S
C19          H24   1.081       .  S
C19          C20   1.361       .  D
C20        C3670   1.473       .  S
C25          C26   1.544       .  S
C25          C31   1.550       .  S
C25          C29   1.544       .  S
C25        C3589   1.529       .  S
C26          H33   1.086       .  S
C26          C27   1.365       .  D
C27          C28   1.528       .  S
C27        C3526   1.477       .  S
C28          C32   1.527       .  S
C28          C30   1.526       .  S
C28          H34   1.111       .  S
C29          H35   1.086       .  S
C29          C30   1.362       .  D
C30        C3565   1.470       .  S
C31          H36   1.081       .  S
C31          C32   1.362       .  D
C32        C3541   1.471       .  S
C37          C38   1.546       .  S
C37          C43   1.546       .  S
C37          C41   1.534       .  S
C37        C3493   1.524       .  S
C38          H45   1.086       .  S
C38          C39   1.367       .  D
C39          C40   1.532       .  S
C39        C3454   1.479       .  S
C40          C44   1.530       .  S
C40          C42   1.530       .  S
C40          H46   1.111       .  S
C41          H47   1.087       .  S
C41          C42   1.358       .  D
C42        C3421   1.468       .  S
C43          H48   1.081       .  S
C43          C44   1.363       .  D
C44        C3469   1.473       .  S
O49         Ni57   1.904       .  S
O49          C59   1.280       .  A
O50         Ni57   1.903       .  S
O50          C60   1.280       .  A
O51         Ni57   1.910       .  S
O51          C61   1.281       .  A
O52         Ni57   1.910       .  S
O52          C62   1.280       .  A
O53         Ni58   1.925       .  S
O53          C62   1.283       .  A
O54         Ni58   1.924       .  S
O54          C61   1.283       .  A
O55         Ni58   1.915       .  S
O55          C60   1.280       .  A
O56         Ni58   1.920       .  S
O56          C59   1.282       .  A
Ni57        Ni58   2.386       .  S
C59        C3574   1.479       .  S
C60        C3430   1.476       .  S
C61        C3733   1.487       .  S
C62        C3646   1.481       .  S
C63          C64   1.543       .  S
C63          C69   1.549       .  S
C63          C67   1.548       .  S
C63        C3397   1.532       .  S
C64          H71   1.086       .  S
C64          C65   1.366       .  D
C65          C66   1.531       .  S
C65        C3349   1.481       .  S
C66          C70   1.528       .  S
C66          C68   1.532       .  S
C66          H72   1.111       .  S
C67          H73   1.085       .  S
C67          C68   1.366       .  D
C68        C3325   1.484       .  S
C69          H74   1.080       .  S
C69          C70   1.359       .  D
C70        C3382   1.472       .  S
C75          C76   1.539       .  S
C75          C81   1.543       .  S
C75          C79   1.550       .  S
C75        C3301   1.527       .  S
C76          H83   1.086       .  S
C76          C77   1.364       .  D
C77          C78   1.533       .  S
C77        C3253   1.479       .  S
C78          C82   1.532       .  S
C78          C80   1.528       .  S
C78          H84   1.111       .  S
C79          H85   1.080       .  S
C79          C80   1.360       .  D
C80        C3238   1.469       .  S
C81          H86   1.086       .  S
C81          C82   1.364       .  D
C82        C3277   1.482       .  S
C87          C88   1.546       .  S
C87          C93   1.549       .  S
C87          C91   1.539       .  S
C87        C3205   1.522       .  S
C88          H95   1.086       .  S
C88          C89   1.361       .  D
C89          C90   1.526       .  S
C89        C3181   1.472       .  S
C90          C94   1.528       .  S
C90          C92   1.529       .  S
C90          H96   1.111       .  S
C91          H97   1.086       .  S
C91          C92   1.361       .  D
C92        C3157   1.471       .  S
C93          H98   1.081       .  S
C93          C94   1.364       .  D
C94        C3133   1.473       .  S
C99         C100   1.550       .  S
C99         C105   1.542       .  S
C99         C103   1.542       .  S
C99        C3109   1.524       .  S
C100        H107   1.082       .  S
C100        C101   1.368       .  D
C101        C102   1.534       .  S
C101       C3085   1.481       .  S
C102        C106   1.525       .  S
C102        C104   1.529       .  S
C102        H108   1.111       .  S
C103        H109   1.086       .  S
C103        C104   1.360       .  D
C104       C3037   1.470       .  S
C105        H110   1.086       .  S
C105        C106   1.359       .  D
C106       C3061   1.471       .  S
O111       Ni119   1.925       .  S
O111        C121   1.284       .  A
O112       Ni119   1.927   1_554  S
O112        C122   1.283       .  A
O113       Ni119   1.915       .  S
O113        C123   1.281       .  A
O114       Ni119   1.916   1_554  S
O114        C124   1.281       .  A
O115       Ni120   1.906   1_554  S
O115        C124   1.280       .  A
O116       Ni120   1.905       .  S
O116        C123   1.280       .  A
O117       Ni120   1.909   1_554  S
O117        C122   1.281       .  A
O118       Ni120   1.909       .  S
O118        C121   1.279       .  A
Ni119      Ni120   2.385       .  S
C121       C3358   1.486       .  S
C122       C3766   1.487       .  S
C123       C3094   1.474       .  S
C124       C3478   1.481       .  S
O125       Ni133   1.903   1_554  S
O125        C135   1.280       .  A
O126       Ni133   1.905       .  S
O126        C136   1.280       .  A
O127       Ni133   1.909   1_554  S
O127        C137   1.280       .  A
O128       Ni133   1.909       .  S
O128        C138   1.280       .  A
O129       Ni134   1.917       .  S
O129        C138   1.281       .  A
O130       Ni134   1.916   1_554  S
O130        C137   1.281       .  A
O131       Ni134   1.913       .  S
O131        C136   1.281       .  A
O132       Ni134   1.919   1_554  S
O132        C135   1.282       .  A
Ni133      Ni134   2.387       .  S
C135       C3709   1.481       .  S
C136       C3166   1.477       .  S
C137       C3517   1.472       .  S
C138       C3046   1.482       .  S
O139       Ni147   1.905   1_554  S
O139        C149   1.280       .  A
O140       Ni147   1.901       .  S
O140        C150   1.279       .  A
O141       Ni147   1.905       .  S
O141        C151   1.280       .  A
O142       Ni147   1.907   1_554  S
O142        C152   1.280       .  A
O143       Ni148   1.909   1_554  S
O143        C152   1.280       .  A
O144       Ni148   1.909       .  S
O144        C151   1.280       .  A
O145       Ni148   1.916       .  S
O145        C150   1.281       .  A
O146       Ni148   1.916   1_554  S
O146        C149   1.281       .  A
Ni147      Ni148   2.387       .  S
C149       C3613   1.482       .  S
C150       C3142   1.469       .  S
C151       C3229   1.478       .  S
C152       C3550   1.473       .  S
O153       Ni161   1.927       .  S
O153        C163   1.283       .  A
O154       Ni161   1.929   1_554  S
O154        C164   1.284       .  A
O155       Ni161   1.919   1_554  S
O155        C165   1.281       .  A
O156       Ni161   1.923       .  S
O156        C166   1.282       .  A
O157       Ni162   1.912       .  S
O157        C166   1.281       .  A
O158       Ni162   1.911   1_554  S
O158        C165   1.280       .  A
O159       Ni162   1.906   1_554  S
O159        C164   1.280       .  A
O160       Ni162   1.901       .  S
O160        C163   1.279       .  A
Ni161      Ni162   2.385       .  S
C163       C3373   1.480       .  S
C164       C3661   1.488       .  S
C165       C3445   1.475       .  S
C166       C3286   1.488       .  S
O167       Ni175   1.918       .  S
O167        C177   1.282       .  A
O168       Ni175   1.918       .  S
O168        C178   1.282       .  A
O169       Ni175   1.906       .  S
O169        C179   1.279       .  A
O170       Ni175   1.903       .  S
O170        C180   1.278       .  A
O171       Ni176   1.925       .  S
O171        C180   1.283       .  A
O172       Ni176   1.927       .  S
O172        C179   1.283       .  A
O173       Ni176   1.918       .  S
O173        C178   1.281       .  A
O174       Ni176   1.923       .  S
O174        C177   1.282       .  A
Ni175      Ni176   2.384       .  S
C177       C3334   1.491       .  S
C178       C3190   1.488       .  S
C179       C3070   1.483       .  S
C180       C3262   1.481       .  S
C181        C182   1.535       .  S
C181        C187   1.546       .  S
C181        C185   1.550       .  S
C181       C3013   1.523       .  S
C182        H189   1.087       .  S
C182        C183   1.357       .  D
C183        C184   1.526       .  S
C183       C2974   1.464       .  S
C184        C188   1.528       .  S
C184        C186   1.530       .  S
C184        H190   1.112       .  S
C185        H191   1.083       .  S
C185        C186   1.365       .  D
C186       C2941   1.475       .  S
C187        H192   1.086       .  S
C187        C188   1.364       .  D
C188       C2989   1.472       .  S
C193        C194   1.540       .  S
C193        C199   1.555       .  S
C193        C197   1.543       .  S
C193       C2917   1.529       .  S
C194        H201   1.085       .  S
C194        C195   1.362       .  D
C195        C196   1.532       .  S
C195       C2854   1.475       .  S
C196        C200   1.529       .  S
C196        C198   1.526       .  S
C196        H202   1.110       .  S
C197        H203   1.086       .  S
C197        C198   1.362       .  D
C198       C2893   1.473       .  S
C199        H204   1.081       .  S
C199        C200   1.366       .  D
C200       C2869   1.484       .  S
C205        C206   1.539       .  S
C205        C211   1.541       .  S
C205        C209   1.549       .  S
C205       C2821   1.524       .  S
C206        H213   1.086       .  S
C206        C207   1.361       .  D
C207        C208   1.529       .  S
C207       C2758   1.469       .  S
C208        C212   1.532       .  S
C208        C210   1.530       .  S
C208        H214   1.111       .  S
C209        H215   1.081       .  S
C209        C210   1.363       .  D
C210       C2782   1.475       .  S
C211        H216   1.086       .  S
C211        C212   1.363       .  D
C212       C2797   1.478       .  S
C217        C218   1.556       .  S
C217        C223   1.546       .  S
C217        C221   1.543       .  S
C217       C2725   1.536       .  S
C218        H225   1.080       .  S
C218        C219   1.364       .  D
C219        C220   1.524       .  S
C219       C2653   1.477       .  S
C220        C224   1.529       .  S
C220        C222   1.530       .  S
C220        H226   1.111       .  S
C221        H227   1.086       .  S
C221        C222   1.363       .  D
C222       C2710   1.476       .  S
C223        H228   1.086       .  S
C223        C224   1.367       .  D
C224       C2686   1.479       .  S
O229       Ni237   1.926       .  S
O229        C239   1.283       .  A
O230       Ni237   1.925       .  S
O230        C240   1.282       .  A
O231       Ni237   1.925       .  S
O231        C241   1.283       .  A
O232       Ni237   1.923       .  S
O232        C242   1.283       .  A
O233       Ni238   1.906       .  S
O233        C242   1.279       .  A
O234       Ni238   1.906       .  S
O234        C241   1.280       .  A
O235       Ni238   1.905       .  S
O235        C240   1.280       .  A
O236       Ni238   1.902       .  S
O236        C239   1.279       .  A
Ni237      Ni238   2.385       .  S
C239       C2773   1.480       .  S
C240       C2878   1.477       .  S
C241       C2662   1.487       .  S
C242       C2998   1.483       .  S
C243        C244   1.541       .  S
C243        C249   1.544       .  S
C243        C247   1.551       .  S
C243       C2629   1.533       .  S
C244        H251   1.086       .  S
C244        C245   1.361       .  D
C245        C246   1.528       .  S
C245       C2581   1.468       .  S
C246        C250   1.535       .  S
C246        C248   1.533       .  S
C246        H252   1.110       .  S
C247        H253   1.078       .  S
C247        C248   1.363       .  D
C248       C2605   1.485       .  S
C249        H254   1.085       .  S
C249        C250   1.368       .  D
C250       C2566   1.486       .  S
C255        C256   1.552       .  S
C255        C261   1.548       .  S
C255        C259   1.539       .  S
C255       C2533   1.532       .  S
C256        H263   1.079       .  S
C256        C257   1.366       .  D
C257        C258   1.529       .  S
C257       C2518   1.476       .  S
C258        C262   1.528       .  S
C258        C260   1.530       .  S
C258        H264   1.112       .  S
C259        H265   1.086       .  S
C259        C260   1.361       .  D
C260       C2485   1.479       .  S
C261        H266   1.086       .  S
C261        C262   1.363       .  D
C262       C2461   1.473       .  S
C267        C268   1.540       .  S
C267        C273   1.536       .  S
C267        C271   1.548       .  S
C267       C2437   1.521       .  S
C268        H275   1.086       .  S
C268        C269   1.362       .  D
C269        C270   1.533       .  S
C269       C2398   1.472       .  S
C270        C274   1.530       .  S
C270        C272   1.533       .  S
C270        H276   1.111       .  S
C271        H277   1.081       .  S
C271        C272   1.364       .  D
C272       C2374   1.481       .  S
C273        H278   1.086       .  S
C273        C274   1.358       .  D
C274       C2413   1.465       .  S
C279        C280   1.540       .  S
C279        C285   1.552       .  S
C279        C283   1.544       .  S
C279       C2341   1.525       .  S
C280        H287   1.086       .  S
C280        C281   1.362       .  D
C281        C282   1.525       .  S
C281       C2302   1.469       .  S
C282        C286   1.530       .  S
C282        C284   1.526       .  S
C282        H288   1.111       .  S
C283        H289   1.086       .  S
C283        C284   1.361       .  D
C284       C2278   1.471       .  S
C285        H290   1.080       .  S
C285        C286   1.365       .  D
C286       C2317   1.478       .  S
O291       Ni299   1.919       .  S
O291        C301   1.283       .  A
O292       Ni299   1.918   1_545  S
O292        C302   1.281       .  A
O293       Ni299   1.914       .  S
O293        C303   1.281       .  A
O294       Ni299   1.916   1_545  S
O294        C304   1.281       .  A
O295       Ni300   1.903   1_545  S
O295        C304   1.279       .  A
O296       Ni300   1.905       .  S
O296        C303   1.279       .  A
O297       Ni300   1.906   1_545  S
O297        C302   1.280       .  A
O298       Ni300   1.908       .  S
O298        C301   1.280       .  A
Ni299      Ni300   2.386       .  S
C301       C2557   1.485       .  S
C302       C2950   1.478       .  S
C303       C2293   1.475       .  S
C304       C2845   1.478       .  S
O305       Ni313   1.911   1_545  S
O305        C315   1.280       .  A
O306       Ni313   1.908       .  S
O306        C316   1.281       .  A
O307       Ni313   1.901       .  S
O307        C317   1.278       .  A
O308       Ni313   1.897   1_545  S
O308        C318   1.277       .  A
O309       Ni314   1.926   1_545  S
O309        C318   1.283       .  A
O310       Ni314   1.928       .  S
O310        C317   1.284       .  A
O311       Ni314   1.921       .  S
O311        C316   1.282       .  A
O312       Ni314   1.917   1_545  S
O312        C315   1.281       .  A
Ni313      Ni314   2.386       .  S
C315       C2749   1.478       .  S
C316       C2269   1.485       .  S
C317       C2365   1.486       .  S
C318       C2965   1.473       .  S
O319       Ni327   1.909       .  S
O319        C329   1.280       .  A
O320       Ni327   1.909   1_545  S
O320        C330   1.280       .  A
O321       Ni327   1.903   1_545  S
O321        C331   1.279       .  A
O322       Ni327   1.901       .  S
O322        C332   1.279       .  A
O323       Ni328   1.929       .  S
O323        C332   1.284       .  A
O324       Ni328   1.925   1_545  S
O324        C331   1.283       .  A
O325       Ni328   1.921   1_545  S
O325        C330   1.282       .  A
O326       Ni328   1.918       .  S
O326        C329   1.281       .  A
Ni327      Ni328   2.386       .  S
C329       C2422   1.477       .  S
C330       C2677   1.480       .  S
C331       C2806   1.482       .  S
C332       C2509   1.486       .  S
O333       Ni341   1.905       .  S
O333        C343   1.280       .  A
O334       Ni341   1.909   1_545  S
O334        C344   1.281       .  A
O335       Ni341   1.908       .  S
O335        C345   1.279       .  A
O336       Ni341   1.908   1_545  S
O336        C346   1.280       .  A
O337       Ni342   1.932   1_545  S
O337        C346   1.284       .  A
O338       Ni342   1.924       .  S
O338        C345   1.282       .  A
O339       Ni342   1.919   1_545  S
O339        C344   1.281       .  A
O340       Ni342   1.922       .  S
O340        C343   1.282       .  A
Ni341      Ni342   2.386       .  S
C343       C2614   1.475       .  S
C344       C2701   1.483       .  S
C345       C2494   1.472       .  S
C346       C2902   1.491       .  S
O347       Ni355   1.918       .  S
O347        C357   1.281       .  A
O348       Ni355   1.916       .  S
O348        C358   1.281       .  A
O349       Ni355   1.922       .  S
O349        C359   1.282       .  A
O350       Ni355   1.921       .  S
O350        C360   1.282       .  A
O351       Ni356   1.909       .  S
O351        C360   1.280       .  A
O352       Ni356   1.903       .  S
O352        C359   1.280       .  A
O353       Ni356   1.912       .  S
O353        C358   1.281       .  A
O354       Ni356   1.909       .  S
O354        C357   1.281       .  A
Ni355      Ni356   2.388       .  S
C357       C2470   1.478       .  S
C358       C2326   1.476       .  S
C359       C2389   1.477       .  S
C360       C2590   1.480       .  S
C361        C362   1.555       .  S
C361        C367   1.542       .  S
C361        C365   1.540       .  S
C361       C2254   1.528       .  S
C362        H369   1.081       .  S
C362        C363   1.371       .  D
C363        C364   1.531       .  S
C363       C2221   1.482       .  S
C364        C368   1.525       .  S
C364        C366   1.529       .  S
C364        H370   1.111       .  S
C365        H371   1.086       .  S
C365        C366   1.361       .  D
C366       C2173   1.474       .  S
C367        H372   1.086       .  S
C367        C368   1.358       .  D
C368       C2197   1.469       .  S
C373        C374   1.537       .  S
C373        C379   1.549       .  S
C373        C377   1.544       .  S
C373       C2158   1.523       .  S
C374        H381   1.087       .  S
C374        C375   1.359       .  D
C375        C376   1.530       .  S
C375       C2125   1.470       .  S
C376        C380   1.531       .  S
C376        C378   1.532       .  S
C376        H382   1.112       .  S
C377        H383   1.085       .  S
C377        C378   1.363       .  D
C378       C2101   1.478       .  S
C379        H384   1.082       .  S
C379        C380   1.364       .  D
C380       C2086   1.475       .  S
C385        C386   1.540       .  S
C385        C391   1.543       .  S
C385        C389   1.546       .  S
C385       C2053   1.527       .  S
C386        H393   1.086       .  S
C386        C387   1.367       .  D
C387        C388   1.537       .  S
C387       C1981   1.489       .  S
C388        C392   1.531       .  S
C388        C390   1.538       .  S
C388        H394   1.108       .  S
C389        H395   1.084       .  S
C389        C390   1.368       .  D
C390       C2029   1.492       .  S
C391        H396   1.083       .  S
C391        C392   1.355       .  D
C392       C2005   1.464       .  S
C397        C398   1.551       .  S
C397        C403   1.542       .  S
C397        C401   1.540       .  S
C397       C1957   1.524       .  S
C398        H405   1.082       .  S
C398        C399   1.366       .  D
C399        C400   1.527       .  S
C399       C1918   1.469       .  S
C400        C404   1.527       .  S
C400        C402   1.530       .  S
C400        H406   1.112       .  S
C401        H407   1.086       .  S
C401        C402   1.360       .  D
C402       C1885   1.471       .  S
C403        H408   1.086       .  S
C403        C404   1.362       .  D
C404       C1942   1.475       .  S
O409       Ni417   1.912   1_655  S
O409        C419   1.280       .  A
O410       Ni417   1.918       .  S
O410        C420   1.281       .  A
O411       Ni417   1.934   1_655  S
O411        C421   1.285       .  A
O412       Ni417   1.932       .  S
O412        C422   1.284       .  A
O413       Ni418   1.910       .  S
O413        C422   1.281       .  A
O414       Ni418   1.908   1_655  S
O414        C421   1.280       .  A
O415       Ni418   1.911       .  S
O415        C420   1.281       .  A
O416       Ni418   1.909   1_655  S
O416        C419   1.281       .  A
Ni417      Ni418   2.384       .  S
C419       C1894   1.474       .  S
C420       C1870   1.485       .  S
C421       C1990   1.489       .  S
C422       C1837   1.492       .  S
O423       Ni431   1.923   1_655  S
O423        C433   1.282       .  A
O424       Ni431   1.921       .  S
O424        C434   1.282       .  A
O425       Ni431   1.925       .  S
O425        C435   1.283       .  A
O426       Ni431   1.920   1_655  S
O426        C436   1.282       .  A
O427       Ni432   1.907   1_655  S
O427        C436   1.280       .  A
O428       Ni432   1.905       .  S
O428        C435   1.280       .  A
O429       Ni432   1.904       .  S
O429        C434   1.280       .  A
O430       Ni432   1.902   1_655  S
O430        C433   1.278       .  A
Ni431      Ni432   2.387       .  S
C433       C1909   1.469       .  S
C434       C1813   1.482       .  S
C435       C1789   1.484       .  S
C436       C2182   1.475       .  S
O437       Ni445   1.937   1_455  S
O437        C447   1.285       .  A
O438       Ni445   1.935       .  S
O438        C448   1.285       .  A
O439       Ni445   1.913   1_455  S
O439        C449   1.281       .  A
O440       Ni445   1.918       .  S
O440        C450   1.281       .  A
O441       Ni446   1.909       .  S
O441        C450   1.281       .  A
O442       Ni446   1.914   1_455  S
O442        C449   1.281       .  A
O443       Ni446   1.910       .  S
O443        C448   1.280       .  A
O444       Ni446   1.904   1_455  S
O444        C447   1.279       .  A
Ni445      Ni446   2.386       .  S
C447       C1741   1.482       .  S
C448       C2038   1.487       .  S
C449       C1774   1.485       .  S
C450       C2134   1.476       .  S
O451       Ni459   1.901       .  S
O451        C461   1.278       .  A
O452       Ni459   1.902   1_655  S
O452        C462   1.280       .  A
O453       Ni459   1.908   1_655  S
O453        C463   1.281       .  A
O454       Ni459   1.906       .  S
O454        C464   1.280       .  A
O455       Ni460   1.921       .  S
O455        C464   1.282       .  A
O456       Ni460   1.920   1_655  S
O456        C463   1.281       .  A
O457       Ni460   1.927   1_655  S
O457        C462   1.283       .  A
O458       Ni460   1.926       .  S
O458        C461   1.283       .  A
Ni459      Ni460   2.386       .  S
C461       C1726   1.478       .  S
C462       C2110   1.484       .  S
C463       C2230   1.480       .  S
C464       C1702   1.482       .  S
O465       Ni473   1.904       .  S
O465        C475   1.279       .  A
O466       Ni473   1.904       .  S
O466        C476   1.279       .  A
O467       Ni473   1.911       .  S
O467        C477   1.281       .  A
O468       Ni473   1.912       .  S
O468        C478   1.282       .  A
O469       Ni474   1.912       .  S
O469        C478   1.280       .  A
O470       Ni474   1.912       .  S
O470        C477   1.280       .  A
O471       Ni474   1.925       .  S
O471        C476   1.283       .  A
O472       Ni474   1.927       .  S
O472        C475   1.284       .  A
Ni473      Ni474   2.386       .  S
C475       C1933   1.481       .  S
C476       C2077   1.477       .  S
C477       C2014   1.474       .  S
C478       C2206   1.483       .  S
C479        C480   1.541       .  S
C479        C485   1.552       .  S
C479        C483   1.535       .  S
C479       C1678   1.523       .  S
C480        H487   1.086       .  S
C480        C481   1.363       .  D
C481        C482   1.535       .  S
C481       C1645   1.479       .  S
C482        C486   1.530       .  S
C482        C484   1.533       .  S
C482        H488   1.110       .  S
C483        H489   1.086       .  S
C483        C484   1.358       .  D
C484       C1822   1.477       .  S
C485        H490   1.081       .  S
C485        C486   1.366       .  D
C486       C1717   1.477       .  S
C491        C492   1.552       .  S
C491        C497   1.540       .  S
C491        C495   1.545       .  S
C491       C1630   1.529       .  S
C492        H499   1.081       .  S
C492        C493   1.364       .  D
C493        C494   1.530       .  S
C493       C1606   1.486       .  S
C494        C498   1.526       .  S
C494        C496   1.531       .  S
C494        H500   1.110       .  S
C495        H501   1.086       .  S
C495        C496   1.366       .  D
C496       C1765   1.478       .  S
C497        H502   1.086       .  S
C497        C498   1.360       .  D
C498       C1861   1.470       .  S
C503        C504   1.539       .  S
C503        C509   1.547       .  S
C503        C507   1.550       .  S
C503       C1573   1.531       .  S
C504        H511   1.086       .  S
C504        C505   1.364       .  D
C505        C506   1.531       .  S
C505       C1558   1.476       .  S
C506        C510   1.531       .  S
C506        C508   1.531       .  S
C506        H512   1.110       .  S
C507        H513   1.085       .  S
C507        C508   1.365       .  D
C508       C1846   1.479       .  S
C509        H514   1.084       .  S
C509        C510   1.363       .  D
C510       C1798   1.478       .  S
C515        C516   1.550       .  S
C515        C521   1.542       .  S
C515        C519   1.544       .  S
C515       C1534   1.532       .  S
C516        H523   1.080       .  S
C516        C517   1.364       .  D
C517        C518   1.534       .  S
C517       C1693   1.481       .  S
C518        C522   1.529       .  S
C518        C520   1.534       .  S
C518        H524   1.111       .  S
C519        H525   1.086       .  S
C519        C520   1.366       .  D
C520       C1750   1.480       .  S
C521        H526   1.086       .  S
C521        C522   1.361       .  D
C522       C1501   1.472       .  S
O527       Ni535   1.920       .  S
O527        C537   1.282       .  A
O528       Ni535   1.923       .  S
O528        C538   1.282       .  A
O529       Ni535   1.927       .  S
O529        C539   1.283       .  A
O530       Ni535   1.923       .  S
O530        C540   1.282       .  A
O531       Ni536   1.909       .  S
O531        C540   1.280       .  A
O532       Ni536   1.908       .  S
O532        C539   1.280       .  A
O533       Ni536   1.908       .  S
O533        C538   1.281       .  A
O534       Ni536   1.915       .  S
O534        C537   1.282       .  A
Ni535      Ni536   2.385       .  S
C537       C1510   1.487       .  S
C538       C1549   1.485       .  S
C539       C1654   1.481       .  S
C540       C1597   1.480       .  S
C541       C1486   1.562       .  S
C541       C1525   1.555       .  S
C541       C2734   1.559       .  S
C541       C3502   1.560       .  S
C542       C1453   1.556       .  S
C542       C2149   1.553       .  S
C542       C2926   1.554       .  S
C542       C3685   1.556       .  S
C543       C1438   1.557       .  S
C543       C1621   1.557       .  S
C543       C2542   1.561       .  S
C543       C3781   1.561       .  S
C544       C1405   1.551       .  S
C544       C1669   1.552       .  S
C544       C2830   1.554       .  S
C544       C3406   1.557       .  S
C545       C1390   1.560       .  S
C545       C2245   1.559       .  S
C545       C3022   1.554       .  S
C545       C3310   1.558       .  S
C546       C1357   1.562       .  S
C546       C2062   1.552       .  S
C546       C2638   1.563       .  S
C546       C3598   1.559       .  S
C547       C1342   1.561       .  S
C547       C1582   1.563       .  S
C547       C2446   1.553       .  S
C547       C3118   1.551       .  S
C548        C549   1.548       .  S
C548        C554   1.543       .  S
C548        C552   1.551       .  S
C548       C1477   1.533       .  S
C549        H556   1.085       .  S
C549        C550   1.369       .  D
C550        C551   1.530       .  S
C550       C1318   1.481       .  S
C551        C555   1.524       .  S
C551        C553   1.524       .  S
C551        H557   1.111       .  S
C552        H558   1.080       .  S
C552        C553   1.362       .  D
C553       C1294   1.473       .  S
C554        H559   1.086       .  S
C554        C555   1.362       .  D
C555       C1270   1.471       .  S
C560        C561   1.540       .  S
C560        C566   1.544       .  S
C560        C564   1.550       .  S
C560       C1414   1.523       .  S
C561        H568   1.086       .  S
C561        C562   1.360       .  D
C562        C563   1.527       .  S
C562       C1237   1.469       .  S
C563        C567   1.533       .  S
C563        C565   1.527       .  S
C563        H569   1.111       .  S
C564        H570   1.081       .  S
C564        C565   1.360       .  D
C565       C1213   1.471       .  S
C566        H571   1.085       .  S
C566        C567   1.365       .  D
C567       C1198   1.482       .  S
C572        C573   1.542       .  S
C572        C578   1.549       .  S
C572        C576   1.544       .  S
C572       C1462   1.524       .  S
C573        H580   1.086       .  S
C573        C574   1.362       .  D
C574        C575   1.529       .  S
C574       C1174   1.475       .  S
C575        C579   1.525       .  S
C575        C577   1.531       .  S
C575        H581   1.110       .  S
C576        H582   1.086       .  S
C576        C577   1.366       .  D
C577       C1150   1.478       .  S
C578        H583   1.081       .  S
C578        C579   1.358       .  D
C579       C1117   1.470       .  S
C584        C585   1.542       .  S
C584        C590   1.549       .  S
C584        C588   1.540       .  S
C584       C1429   1.525       .  S
C585        H592   1.086       .  S
C585        C586   1.360       .  D
C586        C587   1.527       .  S
C586       C1069   1.472       .  S
C587        C591   1.533       .  S
C587        C589   1.531       .  S
C587        H593   1.112       .  S
C588        H594   1.086       .  S
C588        C589   1.363       .  D
C589       C1102   1.476       .  S
C590        H595   1.081       .  S
C590        C591   1.366       .  D
C591       C1045   1.477       .  S
C596        C597   1.542       .  S
C596        C602   1.549       .  S
C596        C600   1.548       .  S
C596       C1366   1.531       .  S
C597        H604   1.086       .  S
C597        C598   1.363       .  D
C598        C599   1.532       .  S
C598        C997   1.479       .  S
C599        C603   1.531       .  S
C599        C601   1.527       .  S
C599        H605   1.111       .  S
C600        H606   1.086       .  S
C600        C601   1.364       .  D
C601       C1021   1.476       .  S
C602        H607   1.080       .  S
C602        C603   1.363       .  D
C603        C973   1.477       .  S
O608       Ni616   1.918   1_545  S
O608        C618   1.282       .  A
O609       Ni616   1.921   1_655  S
O609        C619   1.282       .  A
O610       Ni616   1.918       .  S
O610        C620   1.281       .  A
O611       Ni616   1.917   1_545  S
O611        C621   1.281   1_455  A
O612       Ni617   1.908   1_645  S
O612        C621   1.280       .  A
O613       Ni617   1.907       .  S
O613        C620   1.280       .  A
O614       Ni617   1.905   1_655  S
O614        C619   1.279       .  A
O615       Ni617   1.904   1_545  S
O615        C618   1.279       .  A
Ni616      Ni617   2.387       .  S
C618       C1285   1.477       .  S
C619        C982   1.481       .  S
C620       C1078   1.479       .  S
C621       C1141   1.476       .  S
C622        C623   1.545       .  S
C622        C628   1.538       .  S
C622        C626   1.553       .  S
C622       C1333   1.530       .  S
C623        H630   1.086       .  S
C623        C624   1.366       .  D
C624        C625   1.534       .  S
C624        C901   1.489       .  S
C625        C629   1.530       .  S
C625        C627   1.535       .  S
C625        H631   1.108       .  S
C626        H632   1.081       .  S
C626        C627   1.368       .  D
C627        C949   1.487       .  S
C628        H633   1.086       .  S
C628        C629   1.357       .  D
C629        C925   1.468       .  S
O634       Ni642   1.900       .  S
O634        C644   1.278       .  A
O635       Ni642   1.906   1_564  S
O635        C645   1.281       .  A
O636       Ni642   1.909   1_554  S
O636        C646   1.279       .  A
O637       Ni642   1.913   1_565  S
O637        C647   1.281       .  A
O638       Ni643   1.929   1_565  S
O638        C647   1.284       .  A
O639       Ni643   1.931   1_554  S
O639        C646   1.284       .  A
O640       Ni643   1.918   1_564  S
O640        C645   1.281       .  A
O641       Ni643   1.921       .  S
O641        C644   1.282       .  A
Ni642      Ni643   2.388       .  S
C644       C1189   1.471       .  S
C645       C1054   1.479       .  S
C646       C1261   1.477       .  S
C647        C910   1.485       .  S
C648        C649   1.554       .  S
C648        C654   1.544       .  S
C648        C652   1.547       .  S
C648       C1381   1.534       .  S
C649        H656   1.080       .  S
C649        C650   1.366       .  D
C650        C651   1.529       .  S
C650        C853   1.480       .  S
C651        C655   1.527       .  S
C651        C653   1.527       .  S
C651        H657   1.111       .  S
C652        H658   1.086       .  S
C652        C653   1.365       .  D
C653        C829   1.478       .  S
C654        H659   1.086       .  S
C654        C655   1.362       .  D
C655        C877   1.473       .  S
O660       Ni668   1.904   1_554  S
O660        C670   1.279       .  A
O661       Ni668   1.907   1_655  S
O661        C671   1.279       .  A
O662       Ni668   1.910       .  S
O662        C672   1.281       .  A
O663       Ni668   1.908   1_654  S
O663        C673   1.280       .  A
O664       Ni669   1.914   1_654  S
O664        C673   1.281       .  A
O665       Ni669   1.914       .  S
O665        C672   1.280       .  A
O666       Ni669   1.931   1_655  S
O666        C671   1.284       .  A
O667       Ni669   1.925   1_554  S
O667        C670   1.283       .  A
Ni668      Ni669   2.384       .  S
C670       C1309   1.481       .  S
C671        C838   1.489       .  S
C672       C1222   1.483       .  S
C673       C1126   1.482       .  S
C674        C675   1.549       .  S
C674        C680   1.544       .  S
C674        C678   1.548       .  S
C674        C814   1.531       .  S
C675        H682   1.081       .  S
C675        C676   1.359       .  D
C676        C677   1.529       .  S
C676        C733   1.469       .  S
C677        C681   1.531       .  S
C677        C679   1.534       .  S
C677        H683   1.111       .  S
C678        H684   1.085       .  S
C678        C679   1.369       .  D
C679        C781   1.487       .  S
C680        H685   1.086       .  S
C680        C681   1.361       .  D
C681        C757   1.477       .  S
O686       Ni694   1.921       .  S
O686        C696   1.282       .  A
O687       Ni694   1.922   1_454  S
O687        C697   1.282       .  A
O688       Ni694   1.935   1_554  S
O688        C698   1.285       .  A
O689       Ni694   1.934   1_455  S
O689        C699   1.285       .  A
O690       Ni695   1.901   1_455  S
O690        C699   1.279       .  A
O691       Ni695   1.906   1_554  S
O691        C698   1.280       .  A
O692       Ni695   1.913   1_454  S
O692        C697   1.281       .  A
O693       Ni695   1.913       .  S
O693        C696   1.281       .  A
Ni694      Ni695   2.384       .  S
C696        C766   1.488       .  S
C697       C1093   1.478       .  S
C698       C1030   1.491       .  S
C699        C958   1.487       .  S
O700       Ni708   1.924   1_556  S
O700        C710   1.283       .  A
O701       Ni708   1.924   1_545  S
O701        C711   1.283       .  A
O702       Ni708   1.921   1_546  S
O702        C712   1.282       .  A
O703       Ni708   1.922       .  S
O703        C713   1.282       .  A
O704       Ni709   1.910       .  S
O704        C713   1.281       .  A
O705       Ni709   1.912   1_546  S
O705        C712   1.281       .  A
O706       Ni709   1.904   1_545  S
O706        C711   1.279       .  A
O707       Ni709   1.907   1_556  S
O707        C710   1.279       .  A
Ni708      Ni709   2.384       .  S
C710        C742   1.487       .  S
C711       C1165   1.481       .  S
C712        C862   1.482       .  S
C713       C1006   1.485       .  S
O714       Ni722   1.909   1_565  S
O714        C724   1.281       .  A
O715       Ni722   1.910   1_655  S
O715        C725   1.280       .  A
O716       Ni722   1.915   1_665  S
O716        C726   1.282       .  A
O717       Ni722   1.913       .  S
O717        C727   1.282       .  A
O718       Ni723   1.925   1_455  S
O718        C727   1.283       .  A
O719       Ni723   1.931   1_565  S
O719        C726   1.284       .  A
O720       Ni723   1.915       .  S
O720        C725   1.282       .  A
O721       Ni723   1.918   1_465  S
O721        C724   1.281       .  A
Ni722      Ni723   2.384   1_455  S
C724        C934   1.477       .  S
C725        C886   1.482       .  S
C726        C790   1.494       .  S
C727       C1246   1.489       .  S
C728        C805   1.561       .  S
C728       C1966   1.558       .  S
C728       C2350   1.554       .  S
C728       C3214   1.554       .  S
C729        C730   1.402       .  A
C729        C734   1.398       .  A
C729        H739   1.084       .  S
C730        C735   1.473       .  S
C730        C731   1.407       .  A
C731        C732   1.400       .  A
C731        O736   1.371       .  S
C732        C733   1.401       .  A
C732        H737   1.084       .  S
C733        C734   1.404       .  A
C734        O738   1.372       .  S
C735        C740   1.404       .  A
C735        C744   1.398       .  A
O736        H752   0.992       .  S
O738        H749   0.992       .  S
C740        C741   1.403       .  A
C740        O745   1.371       .  S
C741        C742   1.410       .  A
C741        H746   1.083       .  S
C742        C743   1.415       .  A
C743        C744   1.395       .  A
C743        O747   1.372       .  S
C744        H748   1.084       .  S
O745        H750   0.992       .  S
O747        H751   0.992       .  S
C753        C754   1.403       .  A
C753        C758   1.397       .  A
C753        H763   1.084       .  S
C754        C759   1.480       .  S
C754        C755   1.409       .  A
C755        C756   1.404       .  A
C755        O760   1.371       .  S
C756        C757   1.403       .  A
C756        H761   1.084       .  S
C757        C758   1.405       .  A
C758        O762   1.372       .  S
C759        C764   1.406       .  A
C759        C768   1.400       .  A
O760        H776   0.992       .  S
O762        H773   0.992       .  S
C764        C765   1.405       .  A
C764        O769   1.371       .  S
C765        C766   1.411       .  A
C765        H770   1.083       .  S
C766        C767   1.413       .  A
C767        C768   1.395       .  A
C767        O771   1.371       .  S
C768        H772   1.084       .  S
O769        H774   0.992       .  S
O771        H775   0.992       .  S
C777        C778   1.407       .  A
C777        C782   1.405       .  A
C777        H787   1.083       .  S
C778        C783   1.492       .  S
C778        C779   1.410       .  A
C779        C780   1.403       .  A
C779        O784   1.374       .  S
C780        C781   1.403       .  A
C780        H785   1.084       .  S
C781        C782   1.409       .  A
C782        O786   1.371       .  S
C783        C788   1.409       .  A
C783        C792   1.405       .  A
O784        H800   0.992       .  S
O786        H797   0.992       .  S
C788        C789   1.403       .  A
C788        O793   1.373       .  S
C789        C790   1.408       .  A
C789        H794   1.083       .  S
C790        C791   1.414       .  A
C791        C792   1.406       .  A
C791        O795   1.371       .  S
C792        H796   1.083       .  S
O793        H798   0.992       .  S
O795        H799   0.992       .  S
C801        C802   1.397       .  A
C801        C806   1.395       .  A
C801        H811   1.084       .  S
C802        C807   1.475       .  S
C802        C803   1.402       .  A
C803        C804   1.398       .  A
C803        O808   1.373       .  S
C804        C805   1.419       .  A
C804        H809   1.079       .  S
C805        C806   1.421       .  A
C806        O810   1.372       .  S
C807        C812   1.403       .  A
C807        C816   1.399       .  A
O808        H824   0.992       .  S
O810        H821   0.992       .  S
C812        C813   1.399       .  A
C812        O817   1.373       .  S
C813        C814   1.413       .  A
C813        H818   1.075       .  S
C814        C815   1.416       .  A
C815        C816   1.398       .  A
C815        O819   1.373       .  S
C816        H820   1.084       .  S
O817        H822   0.992       .  S
O819        H823   0.992       .  S
C825        C826   1.402       .  A
C825        C830   1.397       .  A
C825        H835   1.084       .  S
C826        C831   1.479       .  S
C826        C827   1.408       .  A
C827        C828   1.402       .  A
C827        O832   1.371       .  S
C828        C829   1.402       .  A
C828        H833   1.084       .  S
C829        C830   1.408       .  A
C830        O834   1.371       .  S
C831        C836   1.407       .  A
C831        C840   1.399       .  A
O832        H848   0.991       .  S
O834        H845   0.991       .  S
C836        C837   1.404       .  A
C836        O841   1.371       .  S
C837        C838   1.409       .  A
C837        H842   1.083       .  S
C838        C839   1.416       .  A
C839        C840   1.397       .  A
C839        O843   1.372       .  S
C840        H844   1.084       .  S
O841        H846   0.992       .  S
O843        H847   0.992       .  S
C849        C850   1.403       .  A
C849        C854   1.403       .  A
C849        H859   1.083       .  S
C850        C855   1.479       .  S
C850        C851   1.407       .  A
C851        C852   1.397       .  A
C851        O856   1.373       .  S
C852        C853   1.402       .  A
C852        H857   1.084       .  S
C853        C854   1.411       .  A
C854        O858   1.372       .  S
C855        C860   1.407       .  A
C855        C864   1.402       .  A
O856        H872   0.992       .  S
O858        H869   0.992       .  S
C860        C861   1.396       .  A
C860        O865   1.372       .  S
C861        C862   1.405       .  A
C861        H866   1.084       .  S
C862        C863   1.413       .  A
C863        C864   1.403       .  A
C863        O867   1.371       .  S
C864        H868   1.084       .  S
O865        H870   0.992       .  S
O867        H871   0.992       .  S
C873        C874   1.400       .  A
C873        C878   1.398       .  A
C873        H883   1.084       .  S
C874        C879   1.474       .  S
C874        C875   1.408       .  A
C875        C876   1.401       .  A
C875        O880   1.372       .  S
C876        C877   1.401       .  A
C876        H881   1.084       .  S
C877        C878   1.407       .  A
C878        O882   1.372       .  S
C879        C884   1.404       .  A
C879        C888   1.400       .  A
O880        H896   0.992       .  S
O882        H893   0.992       .  S
C884        C885   1.398       .  A
C884        O889   1.371       .  S
C885        C886   1.408       .  A
C885        H890   1.083       .  S
C886        C887   1.414       .  A
C887        C888   1.398       .  A
C887        O891   1.372       .  S
C888        H892   1.084       .  S
O889        H894   0.992       .  S
O891        H895   0.992       .  S
C897        C898   1.402       .  A
C897        C902   1.398       .  A
C897        H907   1.084       .  S
C898        C903   1.486       .  S
C898        C899   1.409       .  A
C899        C900   1.405       .  A
C899        O904   1.371       .  S
C900        C901   1.406       .  A
C900        H905   1.083       .  S
C901        C902   1.411       .  A
C902        O906   1.372       .  S
C903        C908   1.407       .  A
C903        C912   1.405       .  A
O904        H920   0.992       .  S
O906        H917   0.992       .  S
C908        C909   1.399       .  A
C908        O913   1.372       .  S
C909        C910   1.405       .  A
C909        H914   1.084       .  S
C910        C911   1.412       .  A
C911        C912   1.406       .  A
C911        O915   1.371       .  S
C912        H916   1.083       .  S
O913        H918   0.992       .  S
O915        H919   0.992       .  S
C921        C922   1.401       .  A
C921        C926   1.393       .  A
C921        H931   1.084       .  S
C922        C927   1.468       .  S
C922        C923   1.406       .  A
C923        C924   1.401       .  A
C923        O928   1.372       .  S
C924        C925   1.403       .  A
C924        H929   1.084       .  S
C925        C926   1.404       .  A
C926        O930   1.372       .  S
C927        C932   1.404       .  A
C927        C936   1.400       .  A
O928        H944   0.992       .  S
O930        H941   0.992       .  S
C932        C933   1.393       .  A
C932        O937   1.373       .  S
C933        C934   1.404       .  A
C933        H938   1.084       .  S
C934        C935   1.413       .  A
C935        C936   1.402       .  A
C935        O939   1.371       .  S
C936        H940   1.083       .  S
O937        H942   0.992       .  S
O939        H943   0.992       .  S
C945        C946   1.402       .  A
C945        C950   1.399       .  A
C945        H955   1.084       .  S
C946        C951   1.482       .  S
C946        C947   1.408       .  A
C947        C948   1.402       .  A
C947        O952   1.371       .  S
C948        C949   1.406       .  A
C948        H953   1.083       .  S
C949        C950   1.410       .  A
C950        O954   1.373       .  S
C951        C956   1.406       .  A
C951        C960   1.405       .  A
O952        H968   0.992       .  S
O954        H965   0.992       .  S
C956        C957   1.395       .  A
C956        O961   1.373       .  S
C957        C958   1.407       .  A
C957        H962   1.083       .  S
C958        C959   1.413       .  A
C959        C960   1.406       .  A
C959        O963   1.371       .  S
C960        H964   1.083       .  S
O961        H966   0.992       .  S
O963        H967   0.992       .  S
C969        C970   1.402       .  A
C969        C974   1.401       .  A
C969        H979   1.083       .  S
C970        C975   1.476       .  S
C970        C971   1.408       .  A
C971        C972   1.395       .  A
C971        O976   1.372       .  S
C972        C973   1.401       .  A
C972        H977   1.084       .  S
C973        C974   1.410       .  A
C974        O978   1.371       .  S
C975        C980   1.405       .  A
C975        C984   1.400       .  A
O976        H992   0.992       .  S
O978        H989   0.992       .  S
C980        C981   1.402       .  A
C980        O985   1.371       .  S
C981        C982   1.408       .  A
C981        H986   1.083       .  S
C982        C983   1.412       .  A
C983        C984   1.394       .  A
C983        O987   1.372       .  S
C984        H988   1.084       .  S
O985        H990   0.992       .  S
O987        H991   0.992       .  S
C993        C994   1.404       .  A
C993        C998   1.404       .  A
C993       H1003   1.083       .  S
C994        C999   1.480       .  S
C994        C995   1.408       .  A
C995        C996   1.394       .  A
C995       O1000   1.372       .  S
C996        C997   1.401       .  A
C996       H1001   1.084       .  S
C997        C998   1.409       .  A
C998       O1002   1.371       .  S
C999       C1004   1.406       .  A
C999       C1008   1.401       .  A
O1000      H1016   0.992       .  S
O1002      H1013   0.992       .  S
C1004      C1005   1.405       .  A
C1004      O1009   1.371       .  S
C1005      C1006   1.409       .  A
C1005      H1010   1.083       .  S
C1006      C1007   1.412       .  A
C1007      C1008   1.394       .  A
C1007      O1011   1.372       .  S
C1008      H1012   1.084       .  S
O1009      H1014   0.992       .  S
O1011      H1015   0.992       .  S
C1017      C1018   1.406       .  A
C1017      C1022   1.399       .  A
C1017      H1027   1.083       .  S
C1018      C1023   1.488       .  S
C1018      C1019   1.411       .  A
C1019      C1020   1.404       .  A
C1019      O1024   1.371       .  S
C1020      C1021   1.402       .  A
C1020      H1025   1.084       .  S
C1021      C1022   1.405       .  A
C1022      O1026   1.372       .  S
C1023      C1028   1.407       .  A
C1023      C1032   1.405       .  A
O1024      H1040   0.992       .  S
O1026      H1037   0.992       .  S
C1028      C1029   1.397       .  A
C1028      O1033   1.373       .  S
C1029      C1030   1.408       .  A
C1029      H1034   1.083       .  S
C1030      C1031   1.413       .  A
C1031      C1032   1.407       .  A
C1031      O1035   1.371       .  S
C1032      H1036   1.083       .  S
O1033      H1038   0.992       .  S
O1035      H1039   0.992       .  S
C1041      C1042   1.401       .  A
C1041      C1046   1.401       .  A
C1041      H1051   1.084       .  S
C1042      C1047   1.473       .  S
C1042      C1043   1.406       .  A
C1043      C1044   1.396       .  A
C1043      O1048   1.373       .  S
C1044      C1045   1.401       .  A
C1044      H1049   1.084       .  S
C1045      C1046   1.410       .  A
C1046      O1050   1.371       .  S
C1047      C1052   1.404       .  A
C1047      C1056   1.401       .  A
O1048      H1064   0.992       .  S
O1050      H1061   0.992       .  S
C1052      C1053   1.392       .  A
C1052      O1057   1.372       .  S
C1053      C1054   1.405       .  A
C1053      H1058   1.084       .  S
C1054      C1055   1.414       .  A
C1055      C1056   1.403       .  A
C1055      O1059   1.371       .  S
C1056      H1060   1.084       .  S
O1057      H1062   0.992       .  S
O1059      H1063   0.992       .  S
C1065      C1066   1.401       .  A
C1065      C1070   1.399       .  A
C1065      H1075   1.084       .  S
C1066      C1071   1.470       .  S
C1066      C1067   1.405       .  A
C1067      C1068   1.396       .  A
C1067      O1072   1.372       .  S
C1068      C1069   1.401       .  A
C1068      H1073   1.084       .  S
C1069      C1070   1.408       .  A
C1070      O1074   1.372       .  S
C1071      C1076   1.404       .  A
C1071      C1080   1.399       .  A
O1072      H1088   0.992       .  S
O1074      H1085   0.992       .  S
C1076      C1077   1.395       .  A
C1076      O1081   1.372       .  S
C1077      C1078   1.406       .  A
C1077      H1082   1.083       .  S
C1078      C1079   1.413       .  A
C1079      C1080   1.401       .  A
C1079      O1083   1.371       .  S
C1080      H1084   1.084       .  S
O1081      H1086   0.992       .  S
O1083      H1087   0.992       .  S
C1089      C1090   1.402       .  A
C1089      C1094   1.404       .  A
C1089      H1099   1.083       .  S
C1090      C1095   1.474       .  S
C1090      C1091   1.404       .  A
C1091      C1092   1.397       .  A
C1091      O1096   1.372       .  S
C1092      C1093   1.404       .  A
C1092      H1097   1.084       .  S
C1093      C1094   1.412       .  A
C1094      O1098   1.372       .  S
C1095      C1100   1.406       .  A
C1095      C1104   1.402       .  A
O1096      H1112   0.992       .  S
O1098      H1109   0.992       .  S
C1100      C1101   1.398       .  A
C1100      O1105   1.372       .  S
C1101      C1102   1.403       .  A
C1101      H1106   1.084       .  S
C1102      C1103   1.407       .  A
C1103      C1104   1.402       .  A
C1103      O1107   1.371       .  S
C1104      H1108   1.083       .  S
O1105      H1110   0.992       .  S
O1107      H1111   0.992       .  S
C1113      C1114   1.404       .  A
C1113      C1118   1.394       .  A
C1113      H1123   1.084       .  S
C1114      C1119   1.478       .  S
C1114      C1115   1.410       .  A
C1115      C1116   1.400       .  A
C1115      O1120   1.372       .  S
C1116      C1117   1.400       .  A
C1116      H1121   1.084       .  S
C1117      C1118   1.405       .  A
C1118      O1122   1.372       .  S
C1119      C1124   1.407       .  A
C1119      C1128   1.401       .  A
O1120      H1136   0.992       .  S
O1122      H1133   0.992       .  S
C1124      C1125   1.399       .  A
C1124      O1129   1.372       .  S
C1125      C1126   1.409       .  A
C1125      H1130   1.083       .  S
C1126      C1127   1.413       .  A
C1127      C1128   1.394       .  A
C1127      O1131   1.372       .  S
C1128      H1132   1.084       .  S
O1129      H1134   0.992       .  S
O1131      H1135   0.992       .  S
C1137      C1138   1.400       .  A
C1137      C1142   1.393       .  A
C1137      H1147   1.084       .  S
C1138      C1143   1.471       .  S
C1138      C1139   1.404       .  A
C1139      C1140   1.402       .  A
C1139      O1144   1.371       .  S
C1140      C1141   1.407       .  A
C1140      H1145   1.083       .  S
C1141      C1142   1.411       .  A
C1142      O1146   1.372       .  S
C1143      C1148   1.406       .  A
C1143      C1152   1.399       .  A
O1144      H1160   0.992       .  S
O1146      H1157   0.992       .  S
C1148      C1149   1.401       .  A
C1148      O1153   1.371       .  S
C1149      C1150   1.405       .  A
C1149      H1154   1.083       .  S
C1150      C1151   1.409       .  A
C1151      C1152   1.395       .  A
C1151      O1155   1.374       .  S
C1152      H1156   1.084       .  S
O1153      H1158   0.992       .  S
O1155      H1159   0.992       .  S
C1161      C1162   1.401       .  A
C1161      C1166   1.403       .  A
C1161      H1171   1.083       .  S
C1162      C1167   1.474       .  S
C1162      C1163   1.405       .  A
C1163      C1164   1.395       .  A
C1163      O1168   1.373       .  S
C1164      C1165   1.406       .  A
C1164      H1169   1.084       .  S
C1165      C1166   1.412       .  A
C1166      O1170   1.371       .  S
C1167      C1172   1.406       .  A
C1167      C1176   1.403       .  A
O1168      H1184   0.992       .  S
O1170      H1181   0.992       .  S
C1172      C1173   1.394       .  A
C1172      O1177   1.372       .  S
C1173      C1174   1.401       .  A
C1173      H1178   1.084       .  S
C1174      C1175   1.409       .  A
C1175      C1176   1.402       .  A
C1175      O1179   1.372       .  S
C1176      H1180   1.084       .  S
O1177      H1182   0.992       .  S
O1179      H1183   0.992       .  S
C1185      C1186   1.399       .  A
C1185      C1190   1.394       .  A
C1185      H1195   1.084       .  S
C1186      C1191   1.467       .  S
C1186      C1187   1.404       .  A
C1187      C1188   1.400       .  A
C1187      O1192   1.371       .  S
C1188      C1189   1.405       .  A
C1188      H1193   1.083       .  S
C1189      C1190   1.410       .  A
C1190      O1194   1.372       .  S
C1191      C1196   1.402       .  A
C1191      C1200   1.400       .  A
O1192      H1208   0.992       .  S
O1194      H1205   0.992       .  S
C1196      C1197   1.392       .  A
C1196      O1201   1.372       .  S
C1197      C1198   1.405       .  A
C1197      H1202   1.083       .  S
C1198      C1199   1.413       .  A
C1199      C1200   1.400       .  A
C1199      O1203   1.371       .  S
C1200      H1204   1.084       .  S
O1201      H1206   0.992       .  S
O1203      H1207   0.992       .  S
C1209      C1210   1.401       .  A
C1209      C1214   1.394       .  A
C1209      H1219   1.084       .  S
C1210      C1215   1.474       .  S
C1210      C1211   1.408       .  A
C1211      C1212   1.400       .  A
C1211      O1216   1.372       .  S
C1212      C1213   1.401       .  A
C1212      H1217   1.084       .  S
C1213      C1214   1.406       .  A
C1214      O1218   1.372       .  S
C1215      C1220   1.406       .  A
C1215      C1224   1.400       .  A
O1216      H1232   0.992       .  S
O1218      H1229   0.992       .  S
C1220      C1221   1.394       .  A
C1220      O1225   1.372       .  S
C1221      C1222   1.406       .  A
C1221      H1226   1.083       .  S
C1222      C1223   1.415       .  A
C1223      C1224   1.400       .  A
C1223      O1227   1.371       .  S
C1224      H1228   1.084       .  S
O1225      H1230   0.992       .  S
O1227      H1231   0.992       .  S
C1233      C1234   1.402       .  A
C1233      C1238   1.399       .  A
C1233      H1243   1.084       .  S
C1234      C1239   1.474       .  S
C1234      C1235   1.407       .  A
C1235      C1236   1.401       .  A
C1235      O1240   1.371       .  S
C1236      C1237   1.402       .  A
C1236      H1241   1.084       .  S
C1237      C1238   1.404       .  A
C1238      O1242   1.372       .  S
C1239      C1244   1.403       .  A
C1239      C1248   1.400       .  A
O1240      H1256   0.992       .  S
O1242      H1253   0.992       .  S
C1244      C1245   1.396       .  A
C1244      O1249   1.372       .  S
C1245      C1246   1.408       .  A
C1245      H1250   1.083       .  S
C1246      C1247   1.416       .  A
C1247      C1248   1.405       .  A
C1247      O1251   1.371       .  S
C1248      H1252   1.084       .  S
O1249      H1254   0.992       .  S
O1251      H1255   0.992       .  S
C1257      C1258   1.403       .  A
C1257      C1262   1.404       .  A
C1257      H1267   1.083       .  S
C1258      C1263   1.477       .  S
C1258      C1259   1.406       .  A
C1259      C1260   1.398       .  A
C1259      O1264   1.372       .  S
C1260      C1261   1.405       .  A
C1260      H1265   1.084       .  S
C1261      C1262   1.409       .  A
C1262      O1266   1.371       .  S
C1263      C1268   1.407       .  A
C1263      C1272   1.404       .  A
O1264      H1280   0.992       .  S
O1266      H1277   0.992       .  S
C1268      C1269   1.398       .  A
C1268      O1273   1.371       .  S
C1269      C1270   1.400       .  A
C1269      H1274   1.084       .  S
C1270      C1271   1.406       .  A
C1271      C1272   1.402       .  A
C1271      O1275   1.372       .  S
C1272      H1276   1.083       .  S
O1273      H1278   0.992       .  S
O1275      H1279   0.992       .  S
C1281      C1282   1.401       .  A
C1281      C1286   1.399       .  A
C1281      H1291   1.084       .  S
C1282      C1287   1.472       .  S
C1282      C1283   1.405       .  A
C1283      C1284   1.396       .  A
C1283      O1288   1.373       .  S
C1284      C1285   1.405       .  A
C1284      H1289   1.084       .  S
C1285      C1286   1.411       .  A
C1286      O1290   1.371       .  S
C1287      C1292   1.407       .  A
C1287      C1296   1.402       .  A
O1288      H1304   0.992       .  S
O1290      H1301   0.992       .  S
C1292      C1293   1.395       .  A
C1292      O1297   1.372       .  S
C1293      C1294   1.402       .  A
C1293      H1298   1.084       .  S
C1294      C1295   1.407       .  A
C1295      C1296   1.398       .  A
C1295      O1299   1.371       .  S
C1296      H1300   1.084       .  S
O1297      H1302   0.992       .  S
O1299      H1303   0.992       .  S
C1305      C1306   1.402       .  A
C1305      C1310   1.401       .  A
C1305      H1315   1.084       .  S
C1306      C1311   1.476       .  S
C1306      C1307   1.406       .  A
C1307      C1308   1.397       .  A
C1307      O1312   1.373       .  S
C1308      C1309   1.407       .  A
C1308      H1313   1.084       .  S
C1309      C1310   1.412       .  A
C1310      O1314   1.371       .  S
C1311      C1316   1.406       .  A
C1311      C1320   1.403       .  A
O1312      H1328   0.992       .  S
O1314      H1325   0.992       .  S
C1316      C1317   1.395       .  A
C1316      O1321   1.372       .  S
C1317      C1318   1.405       .  A
C1317      H1322   1.084       .  S
C1318      C1319   1.409       .  A
C1319      C1320   1.402       .  A
C1319      O1323   1.371       .  S
C1320      H1324   1.084       .  S
O1321      H1326   0.992       .  S
O1323      H1327   0.992       .  S
C1329      C1330   1.398       .  A
C1329      C1334   1.399       .  A
C1329      H1339   1.084       .  S
C1330      C1335   1.474       .  S
C1330      C1331   1.402       .  A
C1331      C1332   1.398       .  A
C1331      O1336   1.373       .  S
C1332      C1333   1.411       .  A
C1332      H1337   1.076       .  S
C1333      C1334   1.418       .  A
C1334      O1338   1.373       .  S
C1335      C1340   1.401       .  A
C1335      C1344   1.395       .  A
O1336      H1352   0.992       .  S
O1338      H1349   0.992       .  S
C1340      C1341   1.399       .  A
C1340      O1345   1.373       .  S
C1341      C1342   1.417       .  A
C1341      H1346   1.079       .  S
C1342      C1343   1.425       .  A
C1343      C1344   1.398       .  A
C1343      O1347   1.372       .  S
C1344      H1348   1.084       .  S
O1345      H1350   0.992       .  S
O1347      H1351   0.992       .  S
C1353      C1354   1.395       .  A
C1353      C1358   1.397       .  A
C1353      H1363   1.084       .  S
C1354      C1359   1.474       .  S
C1354      C1355   1.401       .  A
C1355      C1356   1.401       .  A
C1355      O1360   1.372       .  S
C1356      C1357   1.418       .  A
C1356      H1361   1.080       .  S
C1357      C1358   1.422       .  A
C1358      O1362   1.370       .  S
C1359      C1364   1.402       .  A
C1359      C1368   1.398       .  A
O1360      H1376   0.992       .  S
O1362      H1373   0.992       .  S
C1364      C1365   1.400       .  A
C1364      O1369   1.372       .  S
C1365      C1366   1.414       .  A
C1365      H1370   1.076       .  S
C1366      C1367   1.416       .  A
C1367      C1368   1.398       .  A
C1367      O1371   1.373       .  S
C1368      H1372   1.084       .  S
O1369      H1374   0.992       .  S
O1371      H1375   0.992       .  S
C1377      C1378   1.397       .  A
C1377      C1382   1.402       .  A
C1377      H1387   1.084       .  S
C1378      C1383   1.473       .  S
C1378      C1379   1.401       .  A
C1379      C1380   1.398       .  A
C1379      O1384   1.372       .  S
C1380      C1381   1.413       .  A
C1380      H1385   1.076       .  S
C1381      C1382   1.419       .  A
C1382      O1386   1.372       .  S
C1383      C1388   1.400       .  A
C1383      C1392   1.395       .  A
O1384      H1400   0.992       .  S
O1386      H1397   0.992       .  S
C1388      C1389   1.399       .  A
C1388      O1393   1.371       .  S
C1389      C1390   1.419       .  A
C1389      H1394   1.080       .  S
C1390      C1391   1.422       .  A
C1391      C1392   1.398       .  A
C1391      O1395   1.370       .  S
C1392      H1396   1.084       .  S
O1393      H1398   0.992       .  S
O1395      H1399   0.992       .  S
C1401      C1402   1.393       .  A
C1401      C1406   1.396       .  A
C1401      H1411   1.084       .  S
C1402      C1407   1.463       .  S
C1402      C1403   1.399       .  A
C1403      C1404   1.393       .  A
C1403      O1408   1.372       .  S
C1404      C1405   1.415       .  A
C1404      H1409   1.079       .  S
C1405      C1406   1.425       .  A
C1406      O1410   1.373       .  S
C1407      C1412   1.400       .  A
C1407      C1416   1.395       .  A
O1408      H1424   0.992       .  S
O1410      H1421   0.992       .  S
C1412      C1413   1.395       .  A
C1412      O1417   1.373       .  S
C1413      C1414   1.411       .  A
C1413      H1418   1.076       .  S
C1414      C1415   1.417       .  A
C1415      C1416   1.395       .  A
C1415      O1419   1.372       .  S
C1416      H1420   1.084       .  S
O1417      H1422   0.992       .  S
O1419      H1423   0.992       .  S
C1425      C1426   1.395       .  A
C1425      C1430   1.396       .  A
C1425      H1435   1.084       .  S
C1426      C1431   1.468       .  S
C1426      C1427   1.402       .  A
C1427      C1428   1.398       .  A
C1427      O1432   1.372       .  S
C1428      C1429   1.411       .  A
C1428      H1433   1.076       .  S
C1429      C1430   1.418       .  A
C1430      O1434   1.373       .  S
C1431      C1436   1.400       .  A
C1431      C1440   1.394       .  A
O1432      H1448   0.992       .  S
O1434      H1445   0.992       .  S
C1436      C1437   1.395       .  A
C1436      O1441   1.372       .  S
C1437      C1438   1.415       .  A
C1437      H1442   1.079       .  S
C1438      C1439   1.425       .  A
C1439      C1440   1.399       .  A
C1439      O1443   1.373       .  S
C1440      H1444   1.084       .  S
O1441      H1446   0.992       .  S
O1443      H1447   0.992       .  S
C1449      C1450   1.395       .  A
C1449      C1454   1.398       .  A
C1449      H1459   1.084       .  S
C1450      C1455   1.464       .  S
C1450      C1451   1.398       .  A
C1451      C1452   1.391       .  A
C1451      O1456   1.372       .  S
C1452      C1453   1.415       .  A
C1452      H1457   1.081       .  S
C1453      C1454   1.427       .  A
C1454      O1458   1.371       .  S
C1455      C1460   1.399       .  A
C1455      C1464   1.396       .  A
O1456      H1472   0.992       .  S
O1458      H1469   0.992       .  S
C1460      C1461   1.393       .  A
C1460      O1465   1.373       .  S
C1461      C1462   1.412       .  A
C1461      H1466   1.075       .  S
C1462      C1463   1.417       .  A
C1463      C1464   1.398       .  A
C1463      O1467   1.373       .  S
C1464      H1468   1.084       .  S
O1465      H1470   0.992       .  S
O1467      H1471   0.992       .  S
C1473      C1474   1.400       .  A
C1473      C1478   1.401       .  A
C1473      H1483   1.084       .  S
C1474      C1479   1.479       .  S
C1474      C1475   1.403       .  A
C1475      C1476   1.396       .  A
C1475      O1480   1.372       .  S
C1476      C1477   1.413       .  A
C1476      H1481   1.075       .  S
C1477      C1478   1.417       .  A
C1478      O1482   1.373       .  S
C1479      C1484   1.401       .  A
C1479      C1488   1.398       .  A
O1480      H1496   0.992       .  S
O1482      H1493   0.992       .  S
C1484      C1485   1.396       .  A
C1484      O1489   1.372       .  S
C1485      C1486   1.418       .  A
C1485      H1490   1.083       .  S
C1486      C1487   1.427       .  A
C1487      C1488   1.401       .  A
C1487      O1491   1.372       .  S
C1488      H1492   1.084       .  S
O1489      H1494   0.992       .  S
O1491      H1495   0.993       .  S
C1497      C1498   1.403       .  A
C1497      C1502   1.398       .  A
C1497      H1507   1.084       .  S
C1498      C1503   1.480       .  S
C1498      C1499   1.410       .  A
C1499      C1500   1.401       .  A
C1499      O1504   1.372       .  S
C1500      C1501   1.400       .  A
C1500      H1505   1.083       .  S
C1501      C1502   1.406       .  A
C1502      O1506   1.372       .  S
C1503      C1508   1.407       .  A
C1503      C1512   1.401       .  A
O1504      H1520   0.992       .  S
O1506      H1517   0.992       .  S
C1508      C1509   1.399       .  A
C1508      O1513   1.372       .  S
C1509      C1510   1.407       .  A
C1509      H1514   1.083       .  S
C1510      C1511   1.415       .  A
C1511      C1512   1.401       .  A
C1511      O1515   1.371       .  S
C1512      H1516   1.084       .  S
O1513      H1518   0.992       .  S
O1515      H1519   0.992       .  S
C1521      C1522   1.398       .  A
C1521      C1526   1.403       .  A
C1521      H1531   1.084       .  S
C1522      C1527   1.475       .  S
C1522      C1523   1.399       .  A
C1523      C1524   1.396       .  A
C1523      O1528   1.372       .  S
C1524      C1525   1.419       .  A
C1524      H1529   1.083       .  S
C1525      C1526   1.424       .  A
C1526      O1530   1.374       .  S
C1527      C1532   1.402       .  A
C1527      C1536   1.399       .  A
O1528      H1544   0.992       .  S
O1530      H1541   0.992       .  S
C1532      C1533   1.395       .  A
C1532      O1537   1.373       .  S
C1533      C1534   1.412       .  A
C1533      H1538   1.075       .  S
C1534      C1535   1.418       .  A
C1535      C1536   1.402       .  A
C1535      O1539   1.372       .  S
C1536      H1540   1.084       .  S
O1537      H1542   0.992       .  S
O1539      H1543   0.992       .  S
C1545      C1546   1.402       .  A
C1545      C1550   1.405       .  A
C1545      H1555   1.083       .  S
C1546      C1551   1.476       .  S
C1546      C1547   1.404       .  A
C1547      C1548   1.393       .  A
C1547      O1552   1.372       .  S
C1548      C1549   1.406       .  A
C1548      H1553   1.083       .  S
C1549      C1550   1.415       .  A
C1550      O1554   1.371       .  S
C1551      C1556   1.407       .  A
C1551      C1560   1.402       .  A
O1552      H1568   0.992       .  S
O1554      H1565   0.992       .  S
C1556      C1557   1.401       .  A
C1556      O1561   1.371       .  S
C1557      C1558   1.403       .  A
C1557      H1562   1.084       .  S
C1558      C1559   1.407       .  A
C1559      C1560   1.397       .  A
C1559      O1563   1.373       .  S
C1560      H1564   1.084       .  S
O1561      H1566   0.992       .  S
O1563      H1567   0.992       .  S
C1569      C1570   1.403       .  A
C1569      C1574   1.399       .  A
C1569      H1579   1.083       .  S
C1570      C1575   1.486       .  S
C1570      C1571   1.406       .  A
C1571      C1572   1.398       .  A
C1571      O1576   1.372       .  S
C1572      C1573   1.412       .  A
C1572      H1577   1.079       .  S
C1573      C1574   1.415       .  A
C1574      O1578   1.371       .  S
C1575      C1580   1.405       .  A
C1575      C1584   1.402       .  A
O1576      H1592   0.992       .  S
O1578      H1589   0.992       .  S
C1580      C1581   1.396       .  A
C1580      O1585   1.372       .  S
C1581      C1582   1.418       .  A
C1581      H1586   1.080       .  S
C1582      C1583   1.420       .  A
C1583      C1584   1.400       .  A
C1583      O1587   1.372       .  S
C1584      H1588   1.083       .  S
O1585      H1590   0.992       .  S
O1587      H1591   0.992       .  S
C1593      C1594   1.403       .  A
C1593      C1598   1.402       .  A
C1593      H1603   1.083       .  S
C1594      C1599   1.481       .  S
C1594      C1595   1.408       .  A
C1595      C1596   1.396       .  A
C1595      O1600   1.372       .  S
C1596      C1597   1.405       .  A
C1596      H1601   1.084       .  S
C1597      C1598   1.411       .  A
C1598      O1602   1.371       .  S
C1599      C1604   1.407       .  A
C1599      C1608   1.402       .  A
O1600      H1616   0.992       .  S
O1602      H1613   0.992       .  S
C1604      C1605   1.401       .  A
C1604      O1609   1.371       .  S
C1605      C1606   1.406       .  A
C1605      H1610   1.083       .  S
C1606      C1607   1.411       .  A
C1607      C1608   1.396       .  A
C1607      O1611   1.371       .  S
C1608      H1612   1.084       .  S
O1609      H1614   0.992       .  S
O1611      H1615   0.992       .  S
C1617      C1618   1.396       .  A
C1617      C1622   1.398       .  A
C1617      H1627   1.084       .  S
C1618      C1623   1.473       .  S
C1618      C1619   1.402       .  A
C1619      C1620   1.397       .  A
C1619      O1624   1.373       .  S
C1620      C1621   1.413       .  A
C1620      H1625   1.080       .  S
C1621      C1622   1.425       .  A
C1622      O1626   1.372       .  S
C1623      C1628   1.402       .  A
C1623      C1632   1.399       .  A
O1624      H1640   0.992       .  S
O1626      H1637   0.992       .  S
C1628      C1629   1.395       .  A
C1628      O1633   1.373       .  S
C1629      C1630   1.411       .  A
C1629      H1634   1.076       .  S
C1630      C1631   1.417       .  A
C1631      C1632   1.401       .  A
C1631      O1635   1.372       .  S
C1632      H1636   1.084       .  S
O1633      H1638   0.992       .  S
O1635      H1639   0.992       .  S
C1641      C1642   1.400       .  A
C1641      C1646   1.396       .  A
C1641      H1651   1.084       .  S
C1642      C1647   1.474       .  S
C1642      C1643   1.406       .  A
C1643      C1644   1.404       .  A
C1643      O1648   1.371       .  S
C1644      C1645   1.405       .  A
C1644      H1649   1.084       .  S
C1645      C1646   1.408       .  A
C1646      O1650   1.373       .  S
C1647      C1652   1.406       .  A
C1647      C1656   1.399       .  A
O1648      H1664   0.992       .  S
O1650      H1661   0.992       .  S
C1652      C1653   1.406       .  A
C1652      O1657   1.371       .  S
C1653      C1654   1.408       .  A
C1653      H1658   1.083       .  S
C1654      C1655   1.411       .  A
C1655      C1656   1.395       .  A
C1655      O1659   1.372       .  S
C1656      H1660   1.084       .  S
O1657      H1662   0.992       .  S
O1659      H1663   0.992       .  S
C1665      C1666   1.395       .  A
C1665      C1670   1.396       .  A
C1665      H1675   1.084       .  S
C1666      C1671   1.465       .  S
C1666      C1667   1.398       .  A
C1667      C1668   1.394       .  A
C1667      O1672   1.372       .  S
C1668      C1669   1.414       .  A
C1668      H1673   1.081       .  S
C1669      C1670   1.426       .  A
C1670      O1674   1.372       .  S
C1671      C1676   1.401       .  A
C1671      C1680   1.395       .  A
O1672      H1688   0.992       .  S
O1674      H1685   0.992       .  S
C1676      C1677   1.395       .  A
C1676      O1681   1.372       .  S
C1677      C1678   1.410       .  A
C1677      H1682   1.076       .  S
C1678      C1679   1.419       .  A
C1679      C1680   1.397       .  A
C1679      O1683   1.373       .  S
C1680      H1684   1.084       .  S
O1681      H1686   0.992       .  S
O1683      H1687   0.992       .  S
C1689      C1690   1.403       .  A
C1689      C1694   1.395       .  A
C1689      H1699   1.084       .  S
C1690      C1695   1.479       .  S
C1690      C1691   1.408       .  A
C1691      C1692   1.401       .  A
C1691      O1696   1.372       .  S
C1692      C1693   1.406       .  A
C1692      H1697   1.083       .  S
C1693      C1694   1.407       .  A
C1694      O1698   1.371       .  S
C1695      C1700   1.407       .  A
C1695      C1704   1.403       .  A
O1696      H1712   0.992       .  S
O1698      H1709   0.992       .  S
C1700      C1701   1.393       .  A
C1700      O1705   1.372       .  S
C1701      C1702   1.406       .  A
C1701      H1706   1.083       .  S
C1702      C1703   1.413       .  A
C1703      C1704   1.403       .  A
C1703      O1707   1.371       .  S
C1704      H1708   1.083       .  S
O1705      H1710   0.992       .  S
O1707      H1711   0.992       .  S
C1713      C1714   1.402       .  A
C1713      C1718   1.401       .  A
C1713      H1723   1.084       .  S
C1714      C1719   1.474       .  S
C1714      C1715   1.406       .  A
C1715      C1716   1.397       .  A
C1715      O1720   1.373       .  S
C1716      C1717   1.401       .  A
C1716      H1721   1.084       .  S
C1717      C1718   1.410       .  A
C1718      O1722   1.372       .  S
C1719      C1724   1.405       .  A
C1719      C1728   1.401       .  A
O1720      H1736   0.992       .  S
O1722      H1733   0.992       .  S
C1724      C1725   1.397       .  A
C1724      O1729   1.373       .  S
C1725      C1726   1.406       .  A
C1725      H1730   1.084       .  S
C1726      C1727   1.411       .  A
C1727      C1728   1.401       .  A
C1727      O1731   1.371       .  S
C1728      H1732   1.084       .  S
O1729      H1734   0.992       .  S
O1731      H1735   0.992       .  S
C1737      C1738   1.405       .  A
C1737      C1742   1.408       .  A
C1737      H1747   1.083       .  S
C1738      C1743   1.481       .  S
C1738      C1739   1.405       .  A
C1739      C1740   1.397       .  A
C1739      O1744   1.372       .  S
C1740      C1741   1.405       .  A
C1740      H1745   1.084       .  S
C1741      C1742   1.411       .  A
C1742      O1746   1.371       .  S
C1743      C1748   1.408       .  A
C1743      C1752   1.403       .  A
O1744      H1760   0.992       .  S
O1746      H1757   0.992       .  S
C1748      C1749   1.403       .  A
C1748      O1753   1.372       .  S
C1749      C1750   1.403       .  A
C1749      H1754   1.084       .  S
C1750      C1751   1.407       .  A
C1751      C1752   1.402       .  A
C1751      O1755   1.371       .  S
C1752      H1756   1.084       .  S
O1753      H1758   0.992       .  S
O1755      H1759   0.992       .  S
C1761      C1762   1.403       .  A
C1761      C1766   1.402       .  A
C1761      H1771   1.083       .  S
C1762      C1767   1.475       .  S
C1762      C1763   1.406       .  A
C1763      C1764   1.395       .  A
C1763      O1768   1.372       .  S
C1764      C1765   1.402       .  A
C1764      H1769   1.084       .  S
C1765      C1766   1.410       .  A
C1766      O1770   1.371       .  S
C1767      C1772   1.404       .  A
C1767      C1776   1.400       .  A
O1768      H1784   0.992       .  S
O1770      H1781   0.992       .  S
C1772      C1773   1.401       .  A
C1772      O1777   1.371       .  S
C1773      C1774   1.409       .  A
C1773      H1778   1.083       .  S
C1774      C1775   1.413       .  A
C1775      C1776   1.397       .  A
C1775      O1779   1.372       .  S
C1776      H1780   1.084       .  S
O1777      H1782   0.992       .  S
O1779      H1783   0.992       .  S
C1785      C1786   1.404       .  A
C1785      C1790   1.403       .  A
C1785      H1795   1.083       .  S
C1786      C1791   1.481       .  S
C1786      C1787   1.407       .  A
C1787      C1788   1.395       .  A
C1787      O1792   1.372       .  S
C1788      C1789   1.406       .  A
C1788      H1793   1.083       .  S
C1789      C1790   1.413       .  A
C1790      O1794   1.371       .  S
C1791      C1796   1.408       .  A
C1791      C1800   1.405       .  A
O1792      H1808   0.992       .  S
O1794      H1805   0.992       .  S
C1796      C1797   1.399       .  A
C1796      O1801   1.372       .  S
C1797      C1798   1.403       .  A
C1797      H1802   1.083       .  S
C1798      C1799   1.408       .  A
C1799      C1800   1.398       .  A
C1799      O1803   1.372       .  S
C1800      H1804   1.084       .  S
O1801      H1806   0.992       .  S
O1803      H1807   0.992       .  S
C1809      C1810   1.402       .  A
C1809      C1814   1.403       .  A
C1809      H1819   1.084       .  S
C1810      C1815   1.474       .  S
C1810      C1811   1.404       .  A
C1811      C1812   1.393       .  A
C1811      O1816   1.373       .  S
C1812      C1813   1.406       .  A
C1812      H1817   1.083       .  S
C1813      C1814   1.414       .  A
C1814      O1818   1.371       .  S
C1815      C1820   1.408       .  A
C1815      C1824   1.400       .  A
O1816      H1832   0.992       .  S
O1818      H1829   0.992       .  S
C1820      C1821   1.395       .  A
C1820      O1825   1.372       .  S
C1821      C1822   1.401       .  A
C1821      H1826   1.084       .  S
C1822      C1823   1.412       .  A
C1823      C1824   1.399       .  A
C1823      O1827   1.372       .  S
C1824      H1828   1.084       .  S
O1825      H1830   0.992       .  S
O1827      H1831   0.992       .  S
C1833      C1834   1.405       .  A
C1833      C1838   1.407       .  A
C1833      H1843   1.083       .  S
C1834      C1839   1.487       .  S
C1834      C1835   1.408       .  A
C1835      C1836   1.397       .  A
C1835      O1840   1.372       .  S
C1836      C1837   1.408       .  A
C1836      H1841   1.083       .  S
C1837      C1838   1.415       .  A
C1838      O1842   1.371       .  S
C1839      C1844   1.409       .  A
C1839      C1848   1.405       .  A
O1840      H1856   0.992       .  S
O1842      H1853   0.992       .  S
C1844      C1845   1.404       .  A
C1844      O1849   1.371       .  S
C1845      C1846   1.403       .  A
C1845      H1850   1.084       .  S
C1846      C1847   1.406       .  A
C1847      C1848   1.400       .  A
C1847      O1851   1.373       .  S
C1848      H1852   1.084       .  S
O1849      H1854   0.992       .  S
O1851      H1855   0.992       .  S
C1857      C1858   1.402       .  A
C1857      C1862   1.396       .  A
C1857      H1867   1.084       .  S
C1858      C1863   1.477       .  S
C1858      C1859   1.409       .  A
C1859      C1860   1.402       .  A
C1859      O1864   1.372       .  S
C1860      C1861   1.402       .  A
C1860      H1865   1.084       .  S
C1861      C1862   1.404       .  A
C1862      O1866   1.372       .  S
C1863      C1868   1.406       .  A
C1863      C1872   1.401       .  A
O1864      H1880   0.992       .  S
O1866      H1877   0.992       .  S
C1868      C1869   1.395       .  A
C1868      O1873   1.372       .  S
C1869      C1870   1.406       .  A
C1869      H1874   1.083       .  S
C1870      C1871   1.415       .  A
C1871      C1872   1.402       .  A
C1871      O1875   1.371       .  S
C1872      H1876   1.084       .  S
O1873      H1878   0.992       .  S
O1875      H1879   0.992       .  S
C1881      C1882   1.400       .  A
C1881      C1886   1.397       .  A
C1881      H1891   1.084       .  S
C1882      C1887   1.467       .  S
C1882      C1883   1.404       .  A
C1883      C1884   1.395       .  A
C1883      O1888   1.372       .  S
C1884      C1885   1.401       .  A
C1884      H1889   1.084       .  S
C1885      C1886   1.409       .  A
C1886      O1890   1.372       .  S
C1887      C1892   1.404       .  A
C1887      C1896   1.399       .  A
O1888      H1904   0.992       .  S
O1890      H1901   0.992       .  S
C1892      C1893   1.395       .  A
C1892      O1897   1.373       .  S
C1893      C1894   1.404       .  A
C1893      H1898   1.084       .  S
C1894      C1895   1.412       .  A
C1895      C1896   1.399       .  A
C1895      O1899   1.372       .  S
C1896      H1900   1.084       .  S
O1897      H1902   0.992       .  S
O1899      H1903   0.992       .  S
C1905      C1906   1.402       .  A
C1905      C1910   1.401       .  A
C1905      H1915   1.084       .  S
C1906      C1911   1.471       .  S
C1906      C1907   1.405       .  A
C1907      C1908   1.395       .  A
C1907      O1912   1.372       .  S
C1908      C1909   1.403       .  A
C1908      H1913   1.084       .  S
C1909      C1910   1.408       .  A
C1910      O1914   1.371       .  S
C1911      C1916   1.406       .  A
C1911      C1920   1.402       .  A
O1912      H1928   0.992       .  S
O1914      H1925   0.992       .  S
C1916      C1917   1.397       .  A
C1916      O1921   1.372       .  S
C1917      C1918   1.401       .  A
C1917      H1922   1.084       .  S
C1918      C1919   1.406       .  A
C1919      C1920   1.399       .  A
C1919      O1923   1.372       .  S
C1920      H1924   1.084       .  S
O1921      H1926   0.992       .  S
O1923      H1927   0.992       .  S
C1929      C1930   1.400       .  A
C1929      C1934   1.396       .  A
C1929      H1939   1.084       .  S
C1930      C1935   1.475       .  S
C1930      C1931   1.405       .  A
C1931      C1932   1.402       .  A
C1931      O1936   1.371       .  S
C1932      C1933   1.407       .  A
C1932      H1937   1.083       .  S
C1933      C1934   1.413       .  A
C1934      O1938   1.372       .  S
C1935      C1940   1.407       .  A
C1935      C1944   1.402       .  A
O1936      H1952   0.992       .  S
O1938      H1949   0.992       .  S
C1940      C1941   1.401       .  A
C1940      O1945   1.371       .  S
C1941      C1942   1.403       .  A
C1941      H1946   1.084       .  S
C1942      C1943   1.407       .  A
C1943      C1944   1.397       .  A
C1943      O1947   1.372       .  S
C1944      H1948   1.084       .  S
O1945      H1950   0.992       .  S
O1947      H1951   0.992       .  S
C1953      C1954   1.394       .  A
C1953      C1958   1.395       .  A
C1953      H1963   1.084       .  S
C1954      C1959   1.465       .  S
C1954      C1955   1.403       .  A
C1955      C1956   1.397       .  A
C1955      O1960   1.372       .  S
C1956      C1957   1.410       .  A
C1956      H1961   1.078       .  S
C1957      C1958   1.420       .  A
C1958      O1962   1.372       .  S
C1959      C1964   1.398       .  A
C1959      C1968   1.394       .  A
O1960      H1976   0.992       .  S
O1962      H1973   0.992       .  S
C1964      C1965   1.396       .  A
C1964      O1969   1.372       .  S
C1965      C1966   1.418       .  A
C1965      H1970   1.080       .  S
C1966      C1967   1.423       .  A
C1967      C1968   1.398       .  A
C1967      O1971   1.373       .  S
C1968      H1972   1.084       .  S
O1969      H1974   0.992       .  S
O1971      H1975   0.992       .  S
C1977      C1978   1.400       .  A
C1977      C1982   1.399       .  A
C1977      H1987   1.084       .  S
C1978      C1983   1.479       .  S
C1978      C1979   1.406       .  A
C1979      C1980   1.404       .  A
C1979      O1984   1.371       .  S
C1980      C1981   1.408       .  A
C1980      H1985   1.083       .  S
C1981      C1982   1.411       .  A
C1982      O1986   1.371       .  S
C1983      C1988   1.407       .  A
C1983      C1992   1.399       .  A
O1984      H2000   0.992       .  S
O1986      H1997   0.992       .  S
C1988      C1989   1.406       .  A
C1988      O1993   1.371       .  S
C1989      C1990   1.410       .  A
C1989      H1994   1.083       .  S
C1990      C1991   1.415       .  A
C1991      C1992   1.396       .  A
C1991      O1995   1.372       .  S
C1992      H1996   1.084       .  S
O1993      H1998   0.992       .  S
O1995      H1999   0.992       .  S
C2001      C2002   1.403       .  A
C2001      C2006   1.397       .  A
C2001      H2011   1.083       .  S
C2002      C2007   1.472       .  S
C2002      C2003   1.407       .  A
C2003      C2004   1.396       .  A
C2003      O2008   1.371       .  S
C2004      C2005   1.399       .  A
C2004      H2009   1.083       .  S
C2005      C2006   1.403       .  A
C2006      O2010   1.372       .  S
C2007      C2012   1.405       .  A
C2007      C2016   1.401       .  A
O2008      H2024   0.992       .  S
O2010      H2021   0.992       .  S
C2012      C2013   1.400       .  A
C2012      O2017   1.372       .  S
C2013      C2014   1.406       .  A
C2013      H2018   1.083       .  S
C2014      C2015   1.410       .  A
C2015      C2016   1.394       .  A
C2015      O2019   1.372       .  S
C2016      H2020   1.084       .  S
O2017      H2022   0.992       .  S
O2019      H2023   0.992       .  S
C2025      C2026   1.403       .  A
C2025      C2030   1.404       .  A
C2025      H2035   1.084       .  S
C2026      C2031   1.484       .  S
C2026      C2027   1.406       .  A
C2027      C2028   1.401       .  A
C2027      O2032   1.372       .  S
C2028      C2029   1.406       .  A
C2028      H2033   1.083       .  S
C2029      C2030   1.413       .  A
C2030      O2034   1.371       .  S
C2031      C2036   1.406       .  A
C2031      C2040   1.404       .  A
O2032      H2048   0.992       .  S
O2034      H2045   0.992       .  S
C2036      C2037   1.400       .  A
C2036      O2041   1.372       .  S
C2037      C2038   1.408       .  A
C2037      H2042   1.084       .  S
C2038      C2039   1.411       .  A
C2039      C2040   1.406       .  A
C2039      O2043   1.371       .  S
C2040      H2044   1.084       .  S
O2041      H2046   0.992       .  S
O2043      H2047   0.992       .  S
C2049      C2050   1.403       .  A
C2049      C2054   1.397       .  A
C2049      H2059   1.083       .  S
C2050      C2055   1.484       .  S
C2050      C2051   1.407       .  A
C2051      C2052   1.396       .  A
C2051      O2056   1.372       .  S
C2052      C2053   1.411       .  A
C2052      H2057   1.078       .  S
C2053      C2054   1.414       .  A
C2054      O2058   1.371       .  S
C2055      C2060   1.406       .  A
C2055      C2064   1.400       .  A
O2056      H2072   0.992       .  S
O2058      H2069   0.992       .  S
C2060      C2061   1.397       .  A
C2060      O2065   1.373       .  S
C2061      C2062   1.414       .  A
C2061      H2066   1.080       .  S
C2062      C2063   1.421       .  A
C2063      C2064   1.397       .  A
C2063      O2067   1.374       .  S
C2064      H2068   1.083       .  S
O2065      H2070   0.992       .  S
O2067      H2071   0.992       .  S
C2073      C2074   1.397       .  A
C2073      C2078   1.393       .  A
C2073      H2083   1.084       .  S
C2074      C2079   1.469       .  S
C2074      C2075   1.405       .  A
C2075      C2076   1.403       .  A
C2075      O2080   1.371       .  S
C2076      C2077   1.407       .  A
C2076      H2081   1.083       .  S
C2077      C2078   1.412       .  A
C2078      O2082   1.372       .  S
C2079      C2084   1.406       .  A
C2079      C2088   1.399       .  A
O2080      H2096   0.992       .  S
O2082      H2093   0.992       .  S
C2084      C2085   1.402       .  A
C2084      O2089   1.371       .  S
C2085      C2086   1.403       .  A
C2085      H2090   1.083       .  S
C2086      C2087   1.408       .  A
C2087      C2088   1.395       .  A
C2087      O2091   1.371       .  S
C2088      H2092   1.084       .  S
O2089      H2094   0.992       .  S
O2091      H2095   0.992       .  S
C2097      C2098   1.402       .  A
C2097      C2102   1.402       .  A
C2097      H2107   1.084       .  S
C2098      C2103   1.476       .  S
C2098      C2099   1.407       .  A
C2099      C2100   1.397       .  A
C2099      O2104   1.373       .  S
C2100      C2101   1.402       .  A
C2100      H2105   1.084       .  S
C2101      C2102   1.409       .  A
C2102      O2106   1.371       .  S
C2103      C2108   1.403       .  A
C2103      C2112   1.403       .  A
O2104      H2120   0.992       .  S
O2106      H2117   0.992       .  S
C2108      C2109   1.395       .  A
C2108      O2113   1.373       .  S
C2109      C2110   1.407       .  A
C2109      H2114   1.083       .  S
C2110      C2111   1.413       .  A
C2111      C2112   1.404       .  A
C2111      O2115   1.371       .  S
C2112      H2116   1.084       .  S
O2113      H2118   0.992       .  S
O2115      H2119   0.992       .  S
C2121      C2122   1.402       .  A
C2121      C2126   1.399       .  A
C2121      H2131   1.084       .  S
C2122      C2127   1.471       .  S
C2122      C2123   1.406       .  A
C2123      C2124   1.397       .  A
C2123      O2128   1.372       .  S
C2124      C2125   1.399       .  A
C2124      H2129   1.084       .  S
C2125      C2126   1.408       .  A
C2126      O2130   1.372       .  S
C2127      C2132   1.405       .  A
C2127      C2136   1.401       .  A
O2128      H2144   0.992       .  S
O2130      H2141   0.992       .  S
C2132      C2133   1.395       .  A
C2132      O2137   1.372       .  S
C2133      C2134   1.404       .  A
C2133      H2138   1.084       .  S
C2134      C2135   1.412       .  A
C2135      C2136   1.401       .  A
C2135      O2139   1.371       .  S
C2136      H2140   1.084       .  S
O2137      H2142   0.992       .  S
O2139      H2143   0.992       .  S
C2145      C2146   1.399       .  A
C2145      C2150   1.401       .  A
C2145      H2155   1.083       .  S
C2146      C2151   1.479       .  S
C2146      C2147   1.403       .  A
C2147      C2148   1.391       .  A
C2147      O2152   1.372       .  S
C2148      C2149   1.416       .  A
C2148      H2153   1.083       .  S
C2149      C2150   1.425       .  A
C2150      O2154   1.372       .  S
C2151      C2156   1.407       .  A
C2151      C2160   1.399       .  A
O2152      H2168   0.992       .  S
O2154      H2165   0.992       .  S
C2156      C2157   1.397       .  A
C2156      O2161   1.372       .  S
C2157      C2158   1.410       .  A
C2157      H2162   1.077       .  S
C2158      C2159   1.416       .  A
C2159      C2160   1.394       .  A
C2159      O2163   1.374       .  S
C2160      H2164   1.084       .  S
O2161      H2166   0.992       .  S
O2163      H2167   0.992       .  S
C2169      C2170   1.400       .  A
C2169      C2174   1.396       .  A
C2169      H2179   1.084       .  S
C2170      C2175   1.469       .  S
C2170      C2171   1.405       .  A
C2171      C2172   1.401       .  A
C2171      O2176   1.371       .  S
C2172      C2173   1.404       .  A
C2172      H2177   1.084       .  S
C2173      C2174   1.407       .  A
C2174      O2178   1.373       .  S
C2175      C2180   1.404       .  A
C2175      C2184   1.399       .  A
O2176      H2192   0.992       .  S
O2178      H2189   0.992       .  S
C2180      C2181   1.401       .  A
C2180      O2185   1.371       .  S
C2181      C2182   1.406       .  A
C2181      H2186   1.083       .  S
C2182      C2183   1.410       .  A
C2183      C2184   1.396       .  A
C2183      O2187   1.372       .  S
C2184      H2188   1.084       .  S
O2185      H2190   0.992       .  S
O2187      H2191   0.992       .  S
C2193      C2194   1.401       .  A
C2193      C2198   1.400       .  A
C2193      H2203   1.084       .  S
C2194      C2199   1.469       .  S
C2194      C2195   1.405       .  A
C2195      C2196   1.397       .  A
C2195      O2200   1.372       .  S
C2196      C2197   1.400       .  A
C2196      H2201   1.084       .  S
C2197      C2198   1.407       .  A
C2198      O2202   1.372       .  S
C2199      C2204   1.403       .  A
C2199      C2208   1.398       .  A
O2200      H2216   0.991       .  S
O2202      H2213   0.991       .  S
C2204      C2205   1.397       .  A
C2204      O2209   1.372       .  S
C2205      C2206   1.407       .  A
C2205      H2210   1.083       .  S
C2206      C2207   1.415       .  A
C2207      C2208   1.399       .  A
C2207      O2211   1.371       .  S
C2208      H2212   1.084       .  S
O2209      H2214   0.992       .  S
O2211      H2215   0.992       .  S
C2217      C2218   1.404       .  A
C2217      C2222   1.404       .  A
C2217      H2227   1.083       .  S
C2218      C2223   1.476       .  S
C2218      C2219   1.405       .  A
C2219      C2220   1.395       .  A
C2219      O2224   1.373       .  S
C2220      C2221   1.404       .  A
C2220      H2225   1.083       .  S
C2221      C2222   1.408       .  A
C2222      O2226   1.371       .  S
C2223      C2228   1.405       .  A
C2223      C2232   1.402       .  A
O2224      H2240   0.992       .  S
O2226      H2237   0.992       .  S
C2228      C2229   1.396       .  A
C2228      O2233   1.373       .  S
C2229      C2230   1.405       .  A
C2229      H2234   1.084       .  S
C2230      C2231   1.412       .  A
C2231      C2232   1.403       .  A
C2231      O2235   1.371       .  S
C2232      H2236   1.084       .  S
O2233      H2238   0.992       .  S
O2235      H2239   0.992       .  S
C2241      C2242   1.401       .  A
C2241      C2246   1.402       .  A
C2241      H2251   1.083       .  S
C2242      C2247   1.488       .  S
C2242      C2243   1.406       .  A
C2243      C2244   1.396       .  A
C2243      O2248   1.372       .  S
C2244      C2245   1.417       .  A
C2244      H2249   1.083       .  S
C2245      C2246   1.426       .  A
C2246      O2250   1.372       .  S
C2247      C2252   1.410       .  A
C2247      C2256   1.401       .  A
O2248      H2264   0.992       .  S
O2250      H2261   0.992       .  S
C2252      C2253   1.401       .  A
C2252      O2257   1.372       .  S
C2253      C2254   1.409       .  A
C2253      H2258   1.078       .  S
C2254      C2255   1.417       .  A
C2255      C2256   1.397       .  A
C2255      O2259   1.374       .  S
C2256      H2260   1.083       .  S
O2257      H2262   0.992       .  S
O2259      H2263   0.992       .  S
C2265      C2266   1.401       .  A
C2265      C2270   1.404       .  A
C2265      H2275   1.084       .  S
C2266      C2271   1.475       .  S
C2266      C2267   1.405       .  A
C2267      C2268   1.393       .  A
C2267      O2272   1.372       .  S
C2268      C2269   1.406       .  A
C2268      H2273   1.083       .  S
C2269      C2270   1.416       .  A
C2270      O2274   1.371       .  S
C2271      C2276   1.407       .  A
C2271      C2280   1.403       .  A
O2272      H2288   0.992       .  S
O2274      H2285   0.992       .  S
C2276      C2277   1.401       .  A
C2276      O2281   1.372       .  S
C2277      C2278   1.403       .  A
C2277      H2282   1.084       .  S
C2278      C2279   1.405       .  A
C2279      C2280   1.397       .  A
C2279      O2283   1.373       .  S
C2280      H2284   1.084       .  S
O2281      H2286   0.992       .  S
O2283      H2287   0.992       .  S
C2289      C2290   1.399       .  A
C2289      C2294   1.395       .  A
C2289      H2299   1.084       .  S
C2290      C2295   1.468       .  S
C2290      C2291   1.404       .  A
C2291      C2292   1.398       .  A
C2291      O2296   1.371       .  S
C2292      C2293   1.406       .  A
C2292      H2297   1.083       .  S
C2293      C2294   1.412       .  A
C2294      O2298   1.372       .  S
C2295      C2300   1.405       .  A
C2295      C2304   1.401       .  A
O2296      H2312   0.992       .  S
O2298      H2309   0.992       .  S
C2300      C2301   1.395       .  A
C2300      O2305   1.372       .  S
C2301      C2302   1.401       .  A
C2301      H2306   1.084       .  S
C2302      C2303   1.407       .  A
C2303      C2304   1.398       .  A
C2303      O2307   1.372       .  S
C2304      H2308   1.084       .  S
O2305      H2310   0.992       .  S
O2307      H2311   0.992       .  S
C2313      C2314   1.403       .  A
C2313      C2318   1.402       .  A
C2313      H2323   1.083       .  S
C2314      C2319   1.474       .  S
C2314      C2315   1.405       .  A
C2315      C2316   1.392       .  A
C2315      O2320   1.372       .  S
C2316      C2317   1.403       .  A
C2316      H2321   1.084       .  S
C2317      C2318   1.409       .  A
C2318      O2322   1.371       .  S
C2319      C2324   1.405       .  A
C2319      C2328   1.401       .  A
O2320      H2336   0.992       .  S
O2322      H2333   0.992       .  S
C2324      C2325   1.401       .  A
C2324      O2329   1.371       .  S
C2325      C2326   1.407       .  A
C2325      H2330   1.083       .  S
C2326      C2327   1.410       .  A
C2327      C2328   1.396       .  A
C2327      O2331   1.372       .  S
C2328      H2332   1.084       .  S
O2329      H2334   0.992       .  S
O2331      H2335   0.992       .  S
C2337      C2338   1.398       .  A
C2337      C2342   1.396       .  A
C2337      H2347   1.084       .  S
C2338      C2343   1.471       .  S
C2338      C2339   1.402       .  A
C2339      C2340   1.395       .  A
C2339      O2344   1.372       .  S
C2340      C2341   1.411       .  A
C2340      H2345   1.075       .  S
C2341      C2342   1.417       .  A
C2342      O2346   1.373       .  S
C2343      C2348   1.399       .  A
C2343      C2352   1.397       .  A
O2344      H2360   0.992       .  S
O2346      H2357   0.992       .  S
C2348      C2349   1.393       .  A
C2348      O2353   1.372       .  S
C2349      C2350   1.415       .  A
C2349      H2354   1.083       .  S
C2350      C2351   1.426       .  A
C2351      C2352   1.400       .  A
C2351      O2355   1.374       .  S
C2352      H2356   1.084       .  S
O2353      H2358   0.992       .  S
O2355      H2359   0.992       .  S
C2361      C2362   1.399       .  A
C2361      C2366   1.394       .  A
C2361      H2371   1.084       .  S
C2362      C2367   1.479       .  S
C2362      C2363   1.408       .  A
C2363      C2364   1.403       .  A
C2363      O2368   1.371       .  S
C2364      C2365   1.408       .  A
C2364      H2369   1.083       .  S
C2365      C2366   1.415       .  A
C2366      O2370   1.372       .  S
C2367      C2372   1.409       .  A
C2367      C2376   1.402       .  A
O2368      H2384   0.992       .  S
O2370      H2381   0.992       .  S
C2372      C2373   1.397       .  A
C2372      O2377   1.372       .  S
C2373      C2374   1.402       .  A
C2373      H2378   1.082       .  S
C2374      C2375   1.411       .  A
C2375      C2376   1.399       .  A
C2375      O2379   1.372       .  S
C2376      H2380   1.084       .  S
O2377      H2382   0.992       .  S
O2379      H2383   0.992       .  S
C2385      C2386   1.401       .  A
C2385      C2390   1.402       .  A
C2385      H2395   1.084       .  S
C2386      C2391   1.470       .  S
C2386      C2387   1.403       .  A
C2387      C2388   1.393       .  A
C2387      O2392   1.372       .  S
C2388      C2389   1.405       .  A
C2388      H2393   1.084       .  S
C2389      C2390   1.412       .  A
C2390      O2394   1.371       .  S
C2391      C2396   1.405       .  A
C2391      C2400   1.401       .  A
O2392      H2408   0.992       .  S
O2394      H2405   0.992       .  S
C2396      C2397   1.400       .  A
C2396      O2401   1.371       .  S
C2397      C2398   1.405       .  A
C2397      H2402   1.084       .  S
C2398      C2399   1.404       .  A
C2399      C2400   1.395       .  A
C2399      O2403   1.372       .  S
C2400      H2404   1.084       .  S
O2401      H2406   0.992       .  S
O2403      H2407   0.992       .  S
C2409      C2410   1.403       .  A
C2409      C2414   1.396       .  A
C2409      H2419   1.084       .  S
C2410      C2415   1.473       .  S
C2410      C2411   1.407       .  A
C2411      C2412   1.398       .  A
C2411      O2416   1.371       .  S
C2412      C2413   1.400       .  A
C2412      H2417   1.084       .  S
C2413      C2414   1.403       .  A
C2414      O2418   1.371       .  S
C2415      C2420   1.405       .  A
C2415      C2424   1.401       .  A
O2416      H2432   0.992       .  S
O2418      H2429   0.992       .  S
C2420      C2421   1.401       .  A
C2420      O2425   1.372       .  S
C2421      C2422   1.406       .  A
C2421      H2426   1.083       .  S
C2422      C2423   1.411       .  A
C2423      C2424   1.395       .  A
C2423      O2427   1.372       .  S
C2424      H2428   1.084       .  S
O2425      H2430   0.992       .  S
O2427      H2431   0.992       .  S
C2433      C2434   1.398       .  A
C2433      C2438   1.394       .  A
C2433      H2443   1.084       .  S
C2434      C2439   1.467       .  S
C2434      C2435   1.401       .  A
C2435      C2436   1.392       .  A
C2435      O2440   1.372       .  S
C2436      C2437   1.410       .  A
C2436      H2441   1.076       .  S
C2437      C2438   1.417       .  A
C2438      O2442   1.372       .  S
C2439      C2444   1.399       .  A
C2439      C2448   1.396       .  A
O2440      H2456   0.992       .  S
O2442      H2453   0.992       .  S
C2444      C2445   1.391       .  A
C2444      O2449   1.372       .  S
C2445      C2446   1.415       .  A
C2445      H2450   1.083       .  S
C2446      C2447   1.426       .  A
C2447      C2448   1.397       .  A
C2447      O2451   1.373       .  S
C2448      H2452   1.084       .  S
O2449      H2454   0.992       .  S
O2451      H2455   0.992       .  S
C2457      C2458   1.402       .  A
C2457      C2462   1.402       .  A
C2457      H2467   1.084       .  S
C2458      C2463   1.471       .  S
C2458      C2459   1.405       .  A
C2459      C2460   1.396       .  A
C2459      O2464   1.372       .  S
C2460      C2461   1.400       .  A
C2460      H2465   1.084       .  S
C2461      C2462   1.408       .  A
C2462      O2466   1.372       .  S
C2463      C2468   1.404       .  A
C2463      C2472   1.400       .  A
O2464      H2480   0.992       .  S
O2466      H2477   0.992       .  S
C2468      C2469   1.396       .  A
C2468      O2473   1.372       .  S
C2469      C2470   1.405       .  A
C2469      H2474   1.084       .  S
C2470      C2471   1.412       .  A
C2471      C2472   1.402       .  A
C2471      O2475   1.371       .  S
C2472      H2476   1.084       .  S
O2473      H2478   0.992       .  S
O2475      H2479   0.992       .  S
C2481      C2482   1.401       .  A
C2481      C2486   1.402       .  A
C2481      H2491   1.084       .  S
C2482      C2487   1.473       .  S
C2482      C2483   1.405       .  A
C2483      C2484   1.397       .  A
C2483      O2488   1.372       .  S
C2484      C2485   1.402       .  A
C2484      H2489   1.084       .  S
C2485      C2486   1.410       .  A
C2486      O2490   1.372       .  S
C2487      C2492   1.405       .  A
C2487      C2496   1.403       .  A
O2488      H2504   0.992       .  S
O2490      H2501   0.992       .  S
C2492      C2493   1.396       .  A
C2492      O2497   1.372       .  S
C2493      C2494   1.403       .  A
C2493      H2498   1.084       .  S
C2494      C2495   1.409       .  A
C2495      C2496   1.403       .  A
C2495      O2499   1.372       .  S
C2496      H2500   1.083       .  S
O2497      H2502   0.992       .  S
O2499      H2503   0.992       .  S
C2505      C2506   1.403       .  A
C2505      C2510   1.404       .  A
C2505      H2515   1.083       .  S
C2506      C2511   1.479       .  S
C2506      C2507   1.406       .  A
C2507      C2508   1.395       .  A
C2507      O2512   1.373       .  S
C2508      C2509   1.407       .  A
C2508      H2513   1.083       .  S
C2509      C2510   1.413       .  A
C2510      O2514   1.371       .  S
C2511      C2516   1.408       .  A
C2511      C2520   1.404       .  A
O2512      H2528   0.992       .  S
O2514      H2525   0.992       .  S
C2516      C2517   1.396       .  A
C2516      O2521   1.372       .  S
C2517      C2518   1.401       .  A
C2517      H2522   1.084       .  S
C2518      C2519   1.407       .  A
C2519      C2520   1.402       .  A
C2519      O2523   1.371       .  S
C2520      H2524   1.083       .  S
O2521      H2526   0.992       .  S
O2523      H2527   0.992       .  S
C2529      C2530   1.399       .  A
C2529      C2534   1.402       .  A
C2529      H2539   1.084       .  S
C2530      C2535   1.473       .  S
C2530      C2531   1.399       .  A
C2531      C2532   1.395       .  A
C2531      O2536   1.371       .  S
C2532      C2533   1.413       .  A
C2532      H2537   1.084       .  S
C2533      C2534   1.420       .  A
C2534      O2538   1.369       .  S
C2535      C2540   1.399       .  A
C2535      C2544   1.398       .  A
O2536      H2552   0.992       .  S
O2538      H2549   0.992       .  S
C2540      C2541   1.394       .  A
C2540      O2545   1.372       .  S
C2541      C2542   1.417       .  A
C2541      H2546   1.080       .  S
C2542      C2543   1.423       .  A
C2543      C2544   1.402       .  A
C2543      O2547   1.372       .  S
C2544      H2548   1.084       .  S
O2545      H2550   0.992       .  S
O2547      H2551   0.992       .  S
C2553      C2554   1.402       .  A
C2553      C2558   1.397       .  A
C2553      H2563   1.084       .  S
C2554      C2559   1.483       .  S
C2554      C2555   1.408       .  A
C2555      C2556   1.400       .  A
C2555      O2560   1.372       .  S
C2556      C2557   1.407       .  A
C2556      H2561   1.083       .  S
C2557      C2558   1.414       .  A
C2558      O2562   1.372       .  S
C2559      C2564   1.408       .  A
C2559      C2568   1.405       .  A
O2560      H2576   0.992       .  S
O2562      H2573   0.992       .  S
C2564      C2565   1.397       .  A
C2564      O2569   1.372       .  S
C2565      C2566   1.405       .  A
C2565      H2570   1.083       .  S
C2566      C2567   1.410       .  A
C2567      C2568   1.402       .  A
C2567      O2571   1.371       .  S
C2568      H2572   1.083       .  S
O2569      H2574   0.992       .  S
O2571      H2575   0.992       .  S
C2577      C2578   1.404       .  A
C2577      C2582   1.400       .  A
C2577      H2587   1.083       .  S
C2578      C2583   1.479       .  S
C2578      C2579   1.409       .  A
C2579      C2580   1.397       .  A
C2579      O2584   1.371       .  S
C2580      C2581   1.399       .  A
C2580      H2585   1.083       .  S
C2581      C2582   1.405       .  A
C2582      O2586   1.371       .  S
C2583      C2588   1.407       .  A
C2583      C2592   1.402       .  A
O2584      H2600   0.992       .  S
O2586      H2597   0.992       .  S
C2588      C2589   1.403       .  A
C2588      O2593   1.371       .  S
C2589      C2590   1.407       .  A
C2589      H2594   1.083       .  S
C2590      C2591   1.411       .  A
C2591      C2592   1.395       .  A
C2591      O2595   1.372       .  S
C2592      H2596   1.084       .  S
O2593      H2598   0.992       .  S
O2595      H2599   0.992       .  S
C2601      C2602   1.399       .  A
C2601      C2606   1.400       .  A
C2601      H2611   1.084       .  S
C2602      C2607   1.471       .  S
C2602      C2603   1.404       .  A
C2603      C2604   1.397       .  A
C2603      O2608   1.372       .  S
C2604      C2605   1.404       .  A
C2604      H2609   1.082       .  S
C2605      C2606   1.414       .  A
C2606      O2610   1.371       .  S
C2607      C2612   1.404       .  A
C2607      C2616   1.401       .  A
O2608      H2624   0.992       .  S
O2610      H2621   0.992       .  S
C2612      C2613   1.394       .  A
C2612      O2617   1.372       .  S
C2613      C2614   1.403       .  A
C2613      H2618   1.084       .  S
C2614      C2615   1.413       .  A
C2615      C2616   1.403       .  A
C2615      O2619   1.372       .  S
C2616      H2620   1.083       .  S
O2617      H2622   0.992       .  S
O2619      H2623   0.992       .  S
C2625      C2626   1.401       .  A
C2625      C2630   1.403       .  A
C2625      H2635   1.083       .  S
C2626      C2631   1.479       .  S
C2626      C2627   1.403       .  A
C2627      C2628   1.393       .  A
C2627      O2632   1.372       .  S
C2628      C2629   1.411       .  A
C2628      H2633   1.074       .  S
C2629      C2630   1.418       .  A
C2630      O2634   1.372       .  S
C2631      C2636   1.400       .  A
C2631      C2640   1.399       .  A
O2632      H2648   0.992       .  S
O2634      H2645   0.992       .  S
C2636      C2637   1.395       .  A
C2636      O2641   1.372       .  S
C2637      C2638   1.419       .  A
C2637      H2642   1.083       .  S
C2638      C2639   1.426       .  A
C2639      C2640   1.402       .  A
C2639      O2643   1.372       .  S
C2640      H2644   1.084       .  S
O2641      H2646   0.992       .  S
O2643      H2647   0.993       .  S
C2649      C2650   1.405       .  A
C2649      C2654   1.400       .  A
C2649      H2659   1.083       .  S
C2650      C2655   1.484       .  S
C2650      C2651   1.410       .  A
C2651      C2652   1.399       .  A
C2651      O2656   1.372       .  S
C2652      C2653   1.402       .  A
C2652      H2657   1.084       .  S
C2653      C2654   1.407       .  A
C2654      O2658   1.372       .  S
C2655      C2660   1.407       .  A
C2655      C2664   1.404       .  A
O2656      H2672   0.992       .  S
O2658      H2669   0.992       .  S
C2660      C2661   1.398       .  A
C2660      O2665   1.372       .  S
C2661      C2662   1.408       .  A
C2661      H2666   1.083       .  S
C2662      C2663   1.413       .  A
C2663      C2664   1.402       .  A
C2663      O2667   1.371       .  S
C2664      H2668   1.084       .  S
O2665      H2670   0.992       .  S
O2667      H2671   0.992       .  S
C2673      C2674   1.401       .  A
C2673      C2678   1.396       .  A
C2673      H2683   1.084       .  S
C2674      C2679   1.478       .  S
C2674      C2675   1.406       .  A
C2675      C2676   1.402       .  A
C2675      O2680   1.371       .  S
C2676      C2677   1.407       .  A
C2676      H2681   1.083       .  S
C2677      C2678   1.411       .  A
C2678      O2682   1.372       .  S
C2679      C2684   1.406       .  A
C2679      C2688   1.405       .  A
O2680      H2696   0.992       .  S
O2682      H2693   0.992       .  S
C2684      C2685   1.395       .  A
C2684      O2689   1.372       .  S
C2685      C2686   1.404       .  A
C2685      H2690   1.084       .  S
C2686      C2687   1.407       .  A
C2687      C2688   1.402       .  A
C2687      O2691   1.371       .  S
C2688      H2692   1.083       .  S
O2689      H2694   0.992       .  S
O2691      H2695   0.992       .  S
C2697      C2698   1.402       .  A
C2697      C2702   1.403       .  A
C2697      H2707   1.083       .  S
C2698      C2703   1.479       .  S
C2698      C2699   1.407       .  A
C2699      C2700   1.393       .  A
C2699      O2704   1.372       .  S
C2700      C2701   1.405       .  A
C2700      H2705   1.083       .  S
C2701      C2702   1.415       .  A
C2702      O2706   1.371       .  S
C2703      C2708   1.408       .  A
C2703      C2712   1.403       .  A
O2704      H2720   0.992       .  S
O2706      H2717   0.992       .  S
C2708      C2709   1.402       .  A
C2708      O2713   1.371       .  S
C2709      C2710   1.403       .  A
C2709      H2714   1.083       .  S
C2710      C2711   1.407       .  A
C2711      C2712   1.395       .  A
C2711      O2715   1.372       .  S
C2712      H2716   1.084       .  S
O2713      H2718   0.992       .  S
O2715      H2719   0.992       .  S
C2721      C2722   1.400       .  A
C2721      C2726   1.404       .  A
C2721      H2731   1.084       .  S
C2722      C2727   1.482       .  S
C2722      C2723   1.404       .  A
C2723      C2724   1.398       .  A
C2723      O2728   1.373       .  S
C2724      C2725   1.412       .  A
C2724      H2729   1.075       .  S
C2725      C2726   1.419       .  A
C2726      O2730   1.372       .  S
C2727      C2732   1.403       .  A
C2727      C2736   1.399       .  A
O2728      H2744   0.992       .  S
O2730      H2741   0.992       .  S
C2732      C2733   1.396       .  A
C2732      O2737   1.372       .  S
C2733      C2734   1.416       .  A
C2733      H2738   1.080       .  S
C2734      C2735   1.424       .  A
C2735      C2736   1.406       .  A
C2735      O2739   1.374       .  S
C2736      H2740   1.084       .  S
O2737      H2742   0.992       .  S
O2739      H2743   0.992       .  S
C2745      C2746   1.404       .  A
C2745      C2750   1.398       .  A
C2745      H2755   1.083       .  S
C2746      C2751   1.482       .  S
C2746      C2747   1.409       .  A
C2747      C2748   1.399       .  A
C2747      O2752   1.372       .  S
C2748      C2749   1.405       .  A
C2748      H2753   1.083       .  S
C2749      C2750   1.410       .  A
C2750      O2754   1.372       .  S
C2751      C2756   1.410       .  A
C2751      C2760   1.406       .  A
O2752      H2768   0.992       .  S
O2754      H2765   0.992       .  S
C2756      C2757   1.401       .  A
C2756      O2761   1.373       .  S
C2757      C2758   1.400       .  A
C2757      H2762   1.084       .  S
C2758      C2759   1.403       .  A
C2759      C2760   1.398       .  A
C2759      O2763   1.371       .  S
C2760      H2764   1.083       .  S
O2761      H2766   0.992       .  S
O2763      H2767   0.992       .  S
C2769      C2770   1.398       .  A
C2769      C2774   1.393       .  A
C2769      H2779   1.084       .  S
C2770      C2775   1.474       .  S
C2770      C2771   1.407       .  A
C2771      C2772   1.403       .  A
C2771      O2776   1.371       .  S
C2772      C2773   1.407       .  A
C2772      H2777   1.083       .  S
C2773      C2774   1.413       .  A
C2774      O2778   1.372       .  S
C2775      C2780   1.407       .  A
C2775      C2784   1.402       .  A
O2776      H2792   0.992       .  S
O2778      H2789   0.992       .  S
C2780      C2781   1.395       .  A
C2780      O2785   1.372       .  S
C2781      C2782   1.402       .  A
C2781      H2786   1.084       .  S
C2782      C2783   1.409       .  A
C2783      C2784   1.399       .  A
C2783      O2787   1.372       .  S
C2784      H2788   1.084       .  S
O2785      H2790   0.992       .  S
O2787      H2791   0.992       .  S
C2793      C2794   1.402       .  A
C2793      C2798   1.400       .  A
C2793      H2803   1.083       .  S
C2794      C2799   1.477       .  S
C2794      C2795   1.408       .  A
C2795      C2796   1.395       .  A
C2795      O2800   1.372       .  S
C2796      C2797   1.401       .  A
C2796      H2801   1.083       .  S
C2797      C2798   1.412       .  A
C2798      O2802   1.372       .  S
C2799      C2804   1.407       .  A
C2799      C2808   1.399       .  A
O2800      H2816   0.992       .  S
O2802      H2813   0.992       .  S
C2804      C2805   1.404       .  A
C2804      O2809   1.371       .  S
C2805      C2806   1.408       .  A
C2805      H2810   1.083       .  S
C2806      C2807   1.414       .  A
C2807      C2808   1.393       .  A
C2807      O2811   1.372       .  S
C2808      H2812   1.084       .  S
O2809      H2814   0.992       .  S
O2811      H2815   0.992       .  S
C2817      C2818   1.398       .  A
C2817      C2822   1.396       .  A
C2817      H2827   1.084       .  S
C2818      C2823   1.470       .  S
C2818      C2819   1.402       .  A
C2819      C2820   1.395       .  A
C2819      O2824   1.373       .  S
C2820      C2821   1.410       .  A
C2820      H2825   1.076       .  S
C2821      C2822   1.416       .  A
C2822      O2826   1.372       .  S
C2823      C2828   1.402       .  A
C2823      C2832   1.395       .  A
O2824      H2840   0.992       .  S
O2826      H2837   0.992       .  S
C2828      C2829   1.396       .  A
C2828      O2833   1.372       .  S
C2829      C2830   1.417       .  A
C2829      H2834   1.079       .  S
C2830      C2831   1.423       .  A
C2831      C2832   1.394       .  A
C2831      O2835   1.372       .  S
C2832      H2836   1.084       .  S
O2833      H2838   0.992       .  S
O2835      H2839   0.992       .  S
C2841      C2842   1.399       .  A
C2841      C2846   1.393       .  A
C2841      H2851   1.084       .  S
C2842      C2847   1.469       .  S
C2842      C2843   1.403       .  A
C2843      C2844   1.399       .  A
C2843      O2848   1.371       .  S
C2844      C2845   1.408       .  A
C2844      H2849   1.083       .  S
C2845      C2846   1.413       .  A
C2846      O2850   1.372       .  S
C2847      C2852   1.405       .  A
C2847      C2856   1.400       .  A
O2848      H2864   0.992       .  S
O2850      H2861   0.992       .  S
C2852      C2853   1.392       .  A
C2852      O2857   1.372       .  S
C2853      C2854   1.402       .  A
C2853      H2858   1.084       .  S
C2854      C2855   1.411       .  A
C2855      C2856   1.400       .  A
C2855      O2859   1.371       .  S
C2856      H2860   1.084       .  S
O2857      H2862   0.992       .  S
O2859      H2863   0.992       .  S
C2865      C2866   1.400       .  A
C2865      C2870   1.397       .  A
C2865      H2875   1.084       .  S
C2866      C2871   1.477       .  S
C2866      C2867   1.407       .  A
C2867      C2868   1.402       .  A
C2867      O2872   1.371       .  S
C2868      C2869   1.405       .  A
C2868      H2873   1.083       .  S
C2869      C2870   1.411       .  A
C2870      O2874   1.373       .  S
C2871      C2876   1.405       .  A
C2871      C2880   1.403       .  A
O2872      H2888   0.992       .  S
O2874      H2885   0.992       .  S
C2876      C2877   1.395       .  A
C2876      O2881   1.372       .  S
C2877      C2878   1.404       .  A
C2877      H2882   1.084       .  S
C2878      C2879   1.411       .  A
C2879      C2880   1.404       .  A
C2879      O2883   1.371       .  S
C2880      H2884   1.083       .  S
O2881      H2886   0.992       .  S
O2883      H2887   0.992       .  S
C2889      C2890   1.405       .  A
C2889      C2894   1.398       .  A
C2889      H2899   1.083       .  S
C2890      C2895   1.484       .  S
C2890      C2891   1.410       .  A
C2891      C2892   1.403       .  A
C2891      O2896   1.371       .  S
C2892      C2893   1.401       .  A
C2892      H2897   1.084       .  S
C2893      C2894   1.405       .  A
C2894      O2898   1.372       .  S
C2895      C2900   1.406       .  A
C2895      C2904   1.404       .  A
O2896      H2912   0.992       .  S
O2898      H2909   0.992       .  S
C2900      C2901   1.397       .  A
C2900      O2905   1.373       .  S
C2901      C2902   1.408       .  A
C2901      H2906   1.083       .  S
C2902      C2903   1.414       .  A
C2903      C2904   1.406       .  A
C2903      O2907   1.371       .  S
C2904      H2908   1.083       .  S
O2905      H2910   0.992       .  S
O2907      H2911   0.992       .  S
C2913      C2914   1.396       .  A
C2913      C2918   1.399       .  A
C2913      H2923   1.084       .  S
C2914      C2919   1.467       .  S
C2914      C2915   1.401       .  A
C2915      C2916   1.396       .  A
C2915      O2920   1.372       .  S
C2916      C2917   1.411       .  A
C2916      H2921   1.076       .  S
C2917      C2918   1.419       .  A
C2918      O2922   1.373       .  S
C2919      C2924   1.399       .  A
C2919      C2928   1.394       .  A
O2920      H2936   0.992       .  S
O2922      H2933   0.992       .  S
C2924      C2925   1.396       .  A
C2924      O2929   1.372       .  S
C2925      C2926   1.417       .  A
C2925      H2930   1.081       .  S
C2926      C2927   1.427       .  A
C2927      C2928   1.397       .  A
C2927      O2931   1.371       .  S
C2928      H2932   1.084       .  S
O2929      H2934   0.992       .  S
O2931      H2935   0.992       .  S
C2937      C2938   1.400       .  A
C2937      C2942   1.400       .  A
C2937      H2947   1.084       .  S
C2938      C2943   1.469       .  S
C2938      C2939   1.405       .  A
C2939      C2940   1.396       .  A
C2939      O2944   1.373       .  S
C2940      C2941   1.402       .  A
C2940      H2945   1.084       .  S
C2941      C2942   1.410       .  A
C2942      O2946   1.372       .  S
C2943      C2948   1.403       .  A
C2943      C2952   1.400       .  A
O2944      H2960   0.992       .  S
O2946      H2957   0.992       .  S
C2948      C2949   1.394       .  A
C2948      O2953   1.373       .  S
C2949      C2950   1.405       .  A
C2949      H2954   1.084       .  S
C2950      C2951   1.413       .  A
C2951      C2952   1.401       .  A
C2951      O2955   1.371       .  S
C2952      H2956   1.084       .  S
O2953      H2958   0.992       .  S
O2955      H2959   0.992       .  S
C2961      C2962   1.399       .  A
C2961      C2966   1.393       .  A
C2961      H2971   1.084       .  S
C2962      C2967   1.470       .  S
C2962      C2963   1.406       .  A
C2963      C2964   1.401       .  A
C2963      O2968   1.371       .  S
C2964      C2965   1.404       .  A
C2964      H2969   1.083       .  S
C2965      C2966   1.411       .  A
C2966      O2970   1.372       .  S
C2967      C2972   1.406       .  A
C2967      C2976   1.403       .  A
O2968      H2984   0.992       .  S
O2970      H2981   0.992       .  S
C2972      C2973   1.397       .  A
C2972      O2977   1.372       .  S
C2973      C2974   1.400       .  A
C2973      H2978   1.084       .  S
C2974      C2975   1.403       .  A
C2975      C2976   1.397       .  A
C2975      O2979   1.372       .  S
C2976      H2980   1.084       .  S
O2977      H2982   0.992       .  S
O2979      H2983   0.992       .  S
C2985      C2986   1.401       .  A
C2985      C2990   1.397       .  A
C2985      H2995   1.084       .  S
C2986      C2991   1.473       .  S
C2986      C2987   1.406       .  A
C2987      C2988   1.400       .  A
C2987      O2992   1.371       .  S
C2988      C2989   1.402       .  A
C2988      H2993   1.084       .  S
C2989      C2990   1.407       .  A
C2990      O2994   1.372       .  S
C2991      C2996   1.404       .  A
C2991      C3000   1.399       .  A
O2992      H3008   0.991       .  S
O2994      H3005   0.992       .  S
C2996      C2997   1.401       .  A
C2996      O3001   1.371       .  S
C2997      C2998   1.407       .  A
C2997      H3002   1.083       .  S
C2998      C2999   1.414       .  A
C2999      C3000   1.397       .  A
C2999      O3003   1.372       .  S
C3000      H3004   1.084       .  S
O3001      H3006   0.992       .  S
O3003      H3007   0.992       .  S
C3009      C3010   1.398       .  A
C3009      C3014   1.397       .  A
C3009      H3019   1.084       .  S
C3010      C3015   1.473       .  S
C3010      C3011   1.403       .  A
C3011      C3012   1.395       .  A
C3011      O3016   1.372       .  S
C3012      C3013   1.411       .  A
C3012      H3017   1.078       .  S
C3013      C3014   1.417       .  A
C3014      O3018   1.372       .  S
C3015      C3020   1.400       .  A
C3015      C3024   1.396       .  A
O3016      H3032   0.992       .  S
O3018      H3029   0.992       .  S
C3020      C3021   1.395       .  A
C3020      O3025   1.372       .  S
C3021      C3022   1.416       .  A
C3021      H3026   1.081       .  S
C3022      C3023   1.427       .  A
C3023      C3024   1.398       .  A
C3023      O3027   1.371       .  S
C3024      H3028   1.084       .  S
O3025      H3030   0.992       .  S
O3027      H3031   0.992       .  S
C3033      C3034   1.405       .  A
C3033      C3038   1.401       .  A
C3033      H3043   1.083       .  S
C3034      C3039   1.479       .  S
C3034      C3035   1.409       .  A
C3035      C3036   1.393       .  A
C3035      O3040   1.372       .  S
C3036      C3037   1.398       .  A
C3036      H3041   1.083       .  S
C3037      C3038   1.408       .  A
C3038      O3042   1.372       .  S
C3039      C3044   1.407       .  A
C3039      C3048   1.402       .  A
O3040      H3056   0.992       .  S
O3042      H3053   0.991       .  S
C3044      C3045   1.403       .  A
C3044      O3049   1.372       .  S
C3045      C3046   1.408       .  A
C3045      H3050   1.083       .  S
C3046      C3047   1.412       .  A
C3047      C3048   1.393       .  A
C3047      O3051   1.372       .  S
C3048      H3052   1.084       .  S
O3049      H3054   0.992       .  S
O3051      H3055   0.992       .  S
C3057      C3058   1.403       .  A
C3057      C3062   1.399       .  A
C3057      H3067   1.084       .  S
C3058      C3063   1.477       .  S
C3058      C3059   1.408       .  A
C3059      C3060   1.400       .  A
C3059      O3064   1.372       .  S
C3060      C3061   1.400       .  A
C3060      H3065   1.083       .  S
C3061      C3062   1.406       .  A
C3062      O3066   1.372       .  S
C3063      C3068   1.406       .  A
C3063      C3072   1.402       .  A
O3064      H3080   0.992       .  S
O3066      H3077   0.992       .  S
C3068      C3069   1.396       .  A
C3068      O3073   1.372       .  S
C3069      C3070   1.406       .  A
C3069      H3074   1.083       .  S
C3070      C3071   1.413       .  A
C3071      C3072   1.403       .  A
C3071      O3075   1.371       .  S
C3072      H3076   1.083       .  S
O3073      H3078   0.992       .  S
O3075      H3079   0.992       .  S
C3081      C3082   1.399       .  A
C3081      C3086   1.394       .  A
C3081      H3091   1.084       .  S
C3082      C3087   1.473       .  S
C3082      C3083   1.406       .  A
C3083      C3084   1.401       .  A
C3083      O3088   1.372       .  S
C3084      C3085   1.406       .  A
C3084      H3089   1.083       .  S
C3085      C3086   1.410       .  A
C3086      O3090   1.372       .  S
C3087      C3092   1.406       .  A
C3087      C3096   1.402       .  A
O3088      H3104   0.992       .  S
O3090      H3101   0.991       .  S
C3092      C3093   1.392       .  A
C3092      O3097   1.372       .  S
C3093      C3094   1.403       .  A
C3093      H3098   1.084       .  S
C3094      C3095   1.411       .  A
C3095      C3096   1.401       .  A
C3095      O3099   1.371       .  S
C3096      H3100   1.084       .  S
O3097      H3102   0.992       .  S
O3099      H3103   0.992       .  S
C3105      C3106   1.399       .  A
C3105      C3110   1.393       .  A
C3105      H3115   1.084       .  S
C3106      C3111   1.474       .  S
C3106      C3107   1.404       .  A
C3107      C3108   1.400       .  A
C3107      O3112   1.372       .  S
C3108      C3109   1.411       .  A
C3108      H3113   1.077       .  S
C3109      C3110   1.416       .  A
C3110      O3114   1.373       .  S
C3111      C3116   1.402       .  A
C3111      C3120   1.397       .  A
O3112      H3128   0.992       .  S
O3114      H3125   0.992       .  S
C3116      C3117   1.397       .  A
C3116      O3121   1.372       .  S
C3117      C3118   1.416       .  A
C3117      H3122   1.079       .  S
C3118      C3119   1.423       .  A
C3119      C3120   1.395       .  A
C3119      O3123   1.373       .  S
C3120      H3124   1.084       .  S
O3121      H3126   0.992       .  S
O3123      H3127   0.992       .  S
C3129      C3130   1.399       .  A
C3129      C3134   1.391       .  A
C3129      H3139   1.084       .  S
C3130      C3135   1.465       .  S
C3130      C3131   1.404       .  A
C3131      C3132   1.399       .  A
C3131      O3136   1.371       .  S
C3132      C3133   1.404       .  A
C3132      H3137   1.083       .  S
C3133      C3134   1.408       .  A
C3134      O3138   1.372       .  S
C3135      C3140   1.405       .  A
C3135      C3144   1.399       .  A
O3136      H3152   0.992       .  S
O3138      H3149   0.992       .  S
C3140      C3141   1.398       .  A
C3140      O3145   1.372       .  S
C3141      C3142   1.404       .  A
C3141      H3146   1.083       .  S
C3142      C3143   1.410       .  A
C3143      C3144   1.393       .  A
C3143      O3147   1.372       .  S
C3144      H3148   1.084       .  S
O3145      H3150   0.992       .  S
O3147      H3151   0.992       .  S
C3153      C3154   1.401       .  A
C3153      C3158   1.399       .  A
C3153      H3163   1.084       .  S
C3154      C3159   1.468       .  S
C3154      C3155   1.405       .  A
C3155      C3156   1.395       .  A
C3155      O3160   1.373       .  S
C3156      C3157   1.401       .  A
C3156      H3161   1.084       .  S
C3157      C3158   1.408       .  A
C3158      O3162   1.371       .  S
C3159      C3164   1.404       .  A
C3159      C3168   1.399       .  A
O3160      H3176   0.992       .  S
O3162      H3173   0.992       .  S
C3164      C3165   1.395       .  A
C3164      O3169   1.373       .  S
C3165      C3166   1.405       .  A
C3165      H3170   1.083       .  S
C3166      C3167   1.413       .  A
C3167      C3168   1.398       .  A
C3167      O3171   1.371       .  S
C3168      H3172   1.084       .  S
O3169      H3174   0.992       .  S
O3171      H3175   0.992       .  S
C3177      C3178   1.404       .  A
C3177      C3182   1.395       .  A
C3177      H3187   1.084       .  S
C3178      C3183   1.481       .  S
C3178      C3179   1.409       .  A
C3179      C3180   1.404       .  A
C3179      O3184   1.371       .  S
C3180      C3181   1.402       .  A
C3180      H3185   1.084       .  S
C3181      C3182   1.405       .  A
C3182      O3186   1.372       .  S
C3183      C3188   1.406       .  A
C3183      C3192   1.402       .  A
O3184      H3200   0.992       .  S
O3186      H3197   0.992       .  S
C3188      C3189   1.403       .  A
C3188      O3193   1.371       .  S
C3189      C3190   1.410       .  A
C3189      H3194   1.083       .  S
C3190      C3191   1.413       .  A
C3191      C3192   1.397       .  A
C3191      O3195   1.371       .  S
C3192      H3196   1.084       .  S
O3193      H3198   0.992       .  S
O3195      H3199   0.992       .  S
C3201      C3202   1.398       .  A
C3201      C3206   1.393       .  A
C3201      H3211   1.084       .  S
C3202      C3207   1.473       .  S
C3202      C3203   1.404       .  A
C3203      C3204   1.399       .  A
C3203      O3208   1.373       .  S
C3204      C3205   1.411       .  A
C3204      H3209   1.076       .  S
C3205      C3206   1.414       .  A
C3206      O3210   1.373       .  S
C3207      C3212   1.402       .  A
C3207      C3216   1.397       .  A
O3208      H3224   0.992       .  S
O3210      H3221   0.992       .  S
C3212      C3213   1.393       .  A
C3212      O3217   1.372       .  S
C3213      C3214   1.416       .  A
C3213      H3218   1.078       .  S
C3214      C3215   1.423       .  A
C3215      C3216   1.397       .  A
C3215      O3219   1.373       .  S
C3216      H3220   1.084       .  S
O3217      H3222   0.992       .  S
O3219      H3223   0.991       .  S
C3225      C3226   1.400       .  A
C3225      C3230   1.398       .  A
C3225      H3235   1.083       .  S
C3226      C3231   1.474       .  S
C3226      C3227   1.407       .  A
C3227      C3228   1.392       .  A
C3227      O3232   1.372       .  S
C3228      C3229   1.405       .  A
C3228      H3233   1.083       .  S
C3229      C3230   1.414       .  A
C3230      O3234   1.371       .  S
C3231      C3236   1.408       .  A
C3231      C3240   1.402       .  A
O3232      H3248   0.992       .  S
O3234      H3245   0.992       .  S
C3236      C3237   1.399       .  A
C3236      O3241   1.372       .  S
C3237      C3238   1.402       .  A
C3237      H3242   1.084       .  S
C3238      C3239   1.404       .  A
C3239      C3240   1.395       .  A
C3239      O3243   1.372       .  S
C3240      H3244   1.084       .  S
O3241      H3246   0.992       .  S
O3243      H3247   0.992       .  S
C3249      C3250   1.402       .  A
C3249      C3254   1.400       .  A
C3249      H3259   1.083       .  S
C3250      C3255   1.476       .  S
C3250      C3251   1.408       .  A
C3251      C3252   1.396       .  A
C3251      O3256   1.372       .  S
C3252      C3253   1.403       .  A
C3252      H3257   1.084       .  S
C3253      C3254   1.409       .  A
C3254      O3258   1.372       .  S
C3255      C3260   1.406       .  A
C3255      C3264   1.400       .  A
O3256      H3272   0.992       .  S
O3258      H3269   0.992       .  S
C3260      C3261   1.402       .  A
C3260      O3265   1.371       .  S
C3261      C3262   1.407       .  A
C3261      H3266   1.083       .  S
C3262      C3263   1.413       .  A
C3263      C3264   1.395       .  A
C3263      O3267   1.372       .  S
C3264      H3268   1.084       .  S
O3265      H3270   0.992       .  S
O3267      H3271   0.992       .  S
C3273      C3274   1.404       .  A
C3273      C3278   1.403       .  A
C3273      H3283   1.083       .  S
C3274      C3279   1.486       .  S
C3274      C3275   1.411       .  A
C3275      C3276   1.397       .  A
C3275      O3280   1.372       .  S
C3276      C3277   1.401       .  A
C3276      H3281   1.084       .  S
C3277      C3278   1.410       .  A
C3278      O3282   1.371       .  S
C3279      C3284   1.408       .  A
C3279      C3288   1.402       .  A
O3280      H3296   0.992       .  S
O3282      H3293   0.992       .  S
C3284      C3285   1.405       .  A
C3284      O3289   1.372       .  S
C3285      C3286   1.409       .  A
C3285      H3290   1.083       .  S
C3286      C3287   1.412       .  A
C3287      C3288   1.396       .  A
C3287      O3291   1.372       .  S
C3288      H3292   1.084       .  S
O3289      H3294   0.992       .  S
O3291      H3295   0.992       .  S
C3297      C3298   1.397       .  A
C3297      C3302   1.400       .  A
C3297      H3307   1.084       .  S
C3298      C3303   1.467       .  S
C3298      C3299   1.400       .  A
C3299      C3300   1.393       .  A
C3299      O3304   1.372       .  S
C3300      C3301   1.411       .  A
C3300      H3305   1.075       .  S
C3301      C3302   1.418       .  A
C3302      O3306   1.372       .  S
C3303      C3308   1.398       .  A
C3303      C3312   1.395       .  A
O3304      H3320   0.992       .  S
O3306      H3317   0.992       .  S
C3308      C3309   1.395       .  A
C3308      O3313   1.372       .  S
C3309      C3310   1.416       .  A
C3309      H3314   1.081       .  S
C3310      C3311   1.427       .  A
C3311      C3312   1.399       .  A
C3311      O3315   1.371       .  S
C3312      H3316   1.084       .  S
O3313      H3318   0.992       .  S
O3315      H3319   0.992       .  S
C3321      C3322   1.405       .  A
C3321      C3326   1.407       .  A
C3321      H3331   1.083       .  S
C3322      C3327   1.481       .  S
C3322      C3323   1.406       .  A
C3323      C3324   1.393       .  A
C3323      O3328   1.372       .  S
C3324      C3325   1.401       .  A
C3324      H3329   1.080       .  S
C3325      C3326   1.412       .  A
C3326      O3330   1.371       .  S
C3327      C3332   1.405       .  A
C3327      C3336   1.401       .  A
O3328      H3344   0.992       .  S
O3330      H3341   0.992       .  S
C3332      C3333   1.405       .  A
C3332      O3337   1.371       .  S
C3333      C3334   1.411       .  A
C3333      H3338   1.083       .  S
C3334      C3335   1.414       .  A
C3335      C3336   1.397       .  A
C3335      O3339   1.372       .  S
C3336      H3340   1.084       .  S
O3337      H3342   0.992       .  S
O3339      H3343   0.992       .  S
C3345      C3346   1.405       .  A
C3345      C3350   1.401       .  A
C3345      H3355   1.083       .  S
C3346      C3351   1.481       .  S
C3346      C3347   1.407       .  A
C3347      C3348   1.398       .  A
C3347      O3352   1.372       .  S
C3348      C3349   1.404       .  A
C3348      H3353   1.084       .  S
C3349      C3350   1.408       .  A
C3350      O3354   1.371       .  S
C3351      C3356   1.406       .  A
C3351      C3360   1.402       .  A
O3352      H3368   0.992       .  S
O3354      H3365   0.992       .  S
C3356      C3357   1.401       .  A
C3356      O3361   1.372       .  S
C3357      C3358   1.406       .  A
C3357      H3362   1.083       .  S
C3358      C3359   1.415       .  A
C3359      C3360   1.400       .  A
C3359      O3363   1.372       .  S
C3360      H3364   1.084       .  S
O3361      H3366   0.992       .  S
O3363      H3367   0.992       .  S
C3369      C3370   1.404       .  A
C3369      C3374   1.403       .  A
C3369      H3379   1.083       .  S
C3370      C3375   1.478       .  S
C3370      C3371   1.406       .  A
C3371      C3372   1.395       .  A
C3371      O3376   1.373       .  S
C3372      C3373   1.405       .  A
C3372      H3377   1.084       .  S
C3373      C3374   1.411       .  A
C3374      O3378   1.371       .  S
C3375      C3380   1.409       .  A
C3375      C3384   1.403       .  A
O3376      H3392   0.992       .  S
O3378      H3389   0.992       .  S
C3380      C3381   1.396       .  A
C3380      O3385   1.371       .  S
C3381      C3382   1.399       .  A
C3381      H3386   1.081       .  S
C3382      C3383   1.406       .  A
C3383      C3384   1.400       .  A
C3383      O3387   1.371       .  S
C3384      H3388   1.084       .  S
O3385      H3390   0.992       .  S
O3387      H3391   0.992       .  S
C3393      C3394   1.397       .  A
C3393      C3398   1.399       .  A
C3393      H3403   1.084       .  S
C3394      C3399   1.469       .  S
C3394      C3395   1.400       .  A
C3395      C3396   1.397       .  A
C3395      O3400   1.372       .  S
C3396      C3397   1.414       .  A
C3396      H3401   1.075       .  S
C3397      C3398   1.417       .  A
C3398      O3402   1.373       .  S
C3399      C3404   1.398       .  A
C3399      C3408   1.396       .  A
O3400      H3416   0.992       .  S
O3402      H3413   0.992       .  S
C3404      C3405   1.395       .  A
C3404      O3409   1.371       .  S
C3405      C3406   1.416       .  A
C3405      H3410   1.081       .  S
C3406      C3407   1.427       .  A
C3407      C3408   1.398       .  A
C3407      O3411   1.372       .  S
C3408      H3412   1.084       .  S
O3409      H3414   0.992       .  S
O3411      H3415   0.992       .  S
C3417      C3418   1.400       .  A
C3417      C3422   1.396       .  A
C3417      H3427   1.084       .  S
C3418      C3423   1.465       .  S
C3418      C3419   1.405       .  A
C3419      C3420   1.397       .  A
C3419      O3424   1.372       .  S
C3420      C3421   1.400       .  A
C3420      H3425   1.082       .  S
C3421      C3422   1.407       .  A
C3422      O3426   1.372       .  S
C3423      C3428   1.402       .  A
C3423      C3432   1.399       .  A
O3424      H3440   0.992       .  S
O3426      H3437   0.992       .  S
C3428      C3429   1.392       .  A
C3428      O3433   1.372       .  S
C3429      C3430   1.405       .  A
C3429      H3434   1.083       .  S
C3430      C3431   1.413       .  A
C3431      C3432   1.400       .  A
C3431      O3435   1.371       .  S
C3432      H3436   1.084       .  S
O3433      H3438   0.992       .  S
O3435      H3439   0.992       .  S
C3441      C3442   1.400       .  A
C3441      C3446   1.398       .  A
C3441      H3451   1.084       .  S
C3442      C3447   1.470       .  S
C3442      C3443   1.404       .  A
C3443      C3444   1.401       .  A
C3443      O3448   1.371       .  S
C3444      C3445   1.405       .  A
C3444      H3449   1.083       .  S
C3445      C3446   1.410       .  A
C3446      O3450   1.372       .  S
C3447      C3452   1.403       .  A
C3447      C3456   1.401       .  A
O3448      H3464   0.992       .  S
O3450      H3461   0.992       .  S
C3452      C3453   1.394       .  A
C3452      O3457   1.372       .  S
C3453      C3454   1.402       .  A
C3453      H3458   1.081       .  S
C3454      C3455   1.411       .  A
C3455      C3456   1.403       .  A
C3455      O3459   1.371       .  S
C3456      H3460   1.083       .  S
O3457      H3462   0.991       .  S
O3459      H3463   0.992       .  S
C3465      C3466   1.403       .  A
C3465      C3470   1.399       .  A
C3465      H3475   1.084       .  S
C3466      C3471   1.475       .  S
C3466      C3467   1.407       .  A
C3467      C3468   1.394       .  A
C3467      O3472   1.372       .  S
C3468      C3469   1.401       .  A
C3468      H3473   1.084       .  S
C3469      C3470   1.408       .  A
C3470      O3474   1.372       .  S
C3471      C3476   1.405       .  A
C3471      C3480   1.402       .  A
O3472      H3488   0.992       .  S
O3474      H3485   0.992       .  S
C3476      C3477   1.394       .  A
C3476      O3481   1.372       .  S
C3477      C3478   1.407       .  A
C3477      H3482   1.083       .  S
C3478      C3479   1.413       .  A
C3479      C3480   1.399       .  A
C3479      O3483   1.372       .  S
C3480      H3484   1.084       .  S
O3481      H3486   0.992       .  S
O3483      H3487   0.992       .  S
C3489      C3490   1.399       .  A
C3489      C3494   1.394       .  A
C3489      H3499   1.084       .  S
C3490      C3495   1.475       .  S
C3490      C3491   1.404       .  A
C3491      C3492   1.398       .  A
C3491      O3496   1.373       .  S
C3492      C3493   1.412       .  A
C3492      H3497   1.076       .  S
C3493      C3494   1.414       .  A
C3494      O3498   1.372       .  S
C3495      C3500   1.403       .  A
C3495      C3504   1.397       .  A
O3496      H3512   0.992       .  S
O3498      H3509   0.992       .  S
C3500      C3501   1.395       .  A
C3500      O3505   1.372       .  S
C3501      C3502   1.417       .  A
C3501      H3506   1.080       .  S
C3502      C3503   1.423       .  A
C3503      C3504   1.398       .  A
C3503      O3507   1.372       .  S
C3504      H3508   1.084       .  S
O3505      H3510   0.992       .  S
O3507      H3511   0.992       .  S
C3513      C3514   1.401       .  A
C3513      C3518   1.397       .  A
C3513      H3523   1.084       .  S
C3514      C3519   1.470       .  S
C3514      C3515   1.404       .  A
C3515      C3516   1.399       .  A
C3515      O3520   1.371       .  S
C3516      C3517   1.405       .  A
C3516      H3521   1.084       .  S
C3517      C3518   1.409       .  A
C3518      O3522   1.372       .  S
C3519      C3524   1.405       .  A
C3519      C3528   1.399       .  A
O3520      H3536   0.992       .  S
O3522      H3533   0.992       .  S
C3524      C3525   1.400       .  A
C3524      O3529   1.371       .  S
C3525      C3526   1.403       .  A
C3525      H3530   1.083       .  S
C3526      C3527   1.411       .  A
C3527      C3528   1.397       .  A
C3527      O3531   1.372       .  S
C3528      H3532   1.084       .  S
O3529      H3534   0.992       .  S
O3531      H3535   0.992       .  S
C3537      C3538   1.399       .  A
C3537      C3542   1.393       .  A
C3537      H3547   1.084       .  S
C3538      C3543   1.464       .  S
C3538      C3539   1.404       .  A
C3539      C3540   1.398       .  A
C3539      O3544   1.371       .  S
C3540      C3541   1.403       .  A
C3540      H3545   1.084       .  S
C3541      C3542   1.407       .  A
C3542      O3546   1.372       .  S
C3543      C3548   1.403       .  A
C3543      C3552   1.398       .  A
O3544      H3560   0.991       .  S
O3546      H3557   0.991       .  S
C3548      C3549   1.398       .  A
C3548      O3553   1.372       .  S
C3549      C3550   1.408       .  A
C3549      H3554   1.083       .  S
C3550      C3551   1.410       .  A
C3551      C3552   1.392       .  A
C3551      O3555   1.372       .  S
C3552      H3556   1.084       .  S
O3553      H3558   0.992       .  S
O3555      H3559   0.992       .  S
C3561      C3562   1.402       .  A
C3561      C3566   1.401       .  A
C3561      H3571   1.084       .  S
C3562      C3567   1.471       .  S
C3562      C3563   1.405       .  A
C3563      C3564   1.396       .  A
C3563      O3568   1.373       .  S
C3564      C3565   1.401       .  A
C3564      H3569   1.084       .  S
C3565      C3566   1.406       .  A
C3566      O3570   1.371       .  S
C3567      C3572   1.404       .  A
C3567      C3576   1.400       .  A
O3568      H3584   0.992       .  S
O3570      H3581   0.991       .  S
C3572      C3573   1.395       .  A
C3572      O3577   1.373       .  S
C3573      C3574   1.405       .  A
C3573      H3578   1.084       .  S
C3574      C3575   1.413       .  A
C3575      C3576   1.402       .  A
C3575      O3579   1.371       .  S
C3576      H3580   1.084       .  S
O3577      H3582   0.992       .  S
O3579      H3583   0.992       .  S
C3585      C3586   1.401       .  A
C3585      C3590   1.400       .  A
C3585      H3595   1.084       .  S
C3586      C3591   1.481       .  S
C3586      C3587   1.406       .  A
C3587      C3588   1.396       .  A
C3587      O3592   1.372       .  S
C3588      C3589   1.411       .  A
C3588      H3593   1.075       .  S
C3589      C3590   1.416       .  A
C3590      O3594   1.373       .  S
C3591      C3596   1.404       .  A
C3591      C3600   1.397       .  A
O3592      H3608   0.992       .  S
O3594      H3605   0.992       .  S
C3596      C3597   1.400       .  A
C3596      O3601   1.371       .  S
C3597      C3598   1.416       .  A
C3597      H3602   1.083       .  S
C3598      C3599   1.427       .  A
C3599      C3600   1.398       .  A
C3599      O3603   1.373       .  S
C3600      H3604   1.084       .  S
O3601      H3606   0.992       .  S
O3603      H3607   0.992       .  S
C3609      C3610   1.402       .  A
C3609      C3614   1.400       .  A
C3609      H3619   1.083       .  S
C3610      C3615   1.480       .  S
C3610      C3611   1.408       .  A
C3611      C3612   1.395       .  A
C3611      O3616   1.372       .  S
C3612      C3613   1.406       .  A
C3612      H3617   1.083       .  S
C3613      C3614   1.413       .  A
C3614      O3618   1.371       .  S
C3615      C3620   1.410       .  A
C3615      C3624   1.403       .  A
O3616      H3632   0.992       .  S
O3618      H3629   0.992       .  S
C3620      C3621   1.401       .  A
C3620      O3625   1.371       .  S
C3621      C3622   1.401       .  A
C3621      H3626   1.084       .  S
C3622      C3623   1.407       .  A
C3623      C3624   1.395       .  A
C3623      O3627   1.372       .  S
C3624      H3628   1.084       .  S
O3625      H3630   0.992       .  S
O3627      H3631   0.991       .  S
C3633      C3634   1.402       .  A
C3633      C3638   1.402       .  A
C3633      H3643   1.083       .  S
C3634      C3639   1.477       .  S
C3634      C3635   1.406       .  A
C3635      C3636   1.396       .  A
C3635      O3640   1.372       .  S
C3636      C3637   1.403       .  A
C3636      H3641   1.084       .  S
C3637      C3638   1.411       .  A
C3638      O3642   1.372       .  S
C3639      C3644   1.406       .  A
C3639      C3648   1.400       .  A
O3640      H3656   0.992       .  S
O3642      H3653   0.992       .  S
C3644      C3645   1.404       .  A
C3644      O3649   1.371       .  S
C3645      C3646   1.408       .  A
C3645      H3650   1.083       .  S
C3646      C3647   1.411       .  A
C3647      C3648   1.396       .  A
C3647      O3651   1.372       .  S
C3648      H3652   1.084       .  S
O3649      H3654   0.992       .  S
O3651      H3655   0.992       .  S
C3657      C3658   1.405       .  A
C3657      C3662   1.405       .  A
C3657      H3667   1.083       .  S
C3658      C3663   1.484       .  S
C3658      C3659   1.407       .  A
C3659      C3660   1.394       .  A
C3659      O3664   1.372       .  S
C3660      C3661   1.407       .  A
C3660      H3665   1.083       .  S
C3661      C3662   1.414       .  A
C3662      O3666   1.371       .  S
C3663      C3668   1.409       .  A
C3663      C3672   1.406       .  A
O3664      H3680   0.992       .  S
O3666      H3677   0.992       .  S
C3668      C3669   1.402       .  A
C3668      O3673   1.371       .  S
C3669      C3670   1.402       .  A
C3669      H3674   1.084       .  S
C3670      C3671   1.404       .  A
C3671      C3672   1.396       .  A
C3671      O3675   1.372       .  S
C3672      H3676   1.084       .  S
O3673      H3678   0.992       .  S
O3675      H3679   0.992       .  S
C3681      C3682   1.397       .  A
C3681      C3686   1.397       .  A
C3681      H3691   1.084       .  S
C3682      C3687   1.472       .  S
C3682      C3683   1.400       .  A
C3683      C3684   1.397       .  A
C3683      O3688   1.373       .  S
C3684      C3685   1.418       .  A
C3684      H3689   1.080       .  S
C3685      C3686   1.422       .  A
C3686      O3690   1.371       .  S
C3687      C3692   1.402       .  A
C3687      C3696   1.398       .  A
O3688      H3704   0.992       .  S
O3690      H3701   0.992       .  S
C3692      C3693   1.397       .  A
C3692      O3697   1.373       .  S
C3693      C3694   1.412       .  A
C3693      H3698   1.075       .  S
C3694      C3695   1.417       .  A
C3695      C3696   1.398       .  A
C3695      O3699   1.373       .  S
C3696      H3700   1.084       .  S
O3697      H3702   0.992       .  S
O3699      H3703   0.992       .  S
C3705      C3706   1.401       .  A
C3705      C3710   1.402       .  A
C3705      H3715   1.083       .  S
C3706      C3711   1.474       .  S
C3706      C3707   1.406       .  A
C3707      C3708   1.392       .  A
C3707      O3712   1.372       .  S
C3708      C3709   1.405       .  A
C3708      H3713   1.083       .  S
C3709      C3710   1.414       .  A
C3710      O3714   1.371       .  S
C3711      C3716   1.408       .  A
C3711      C3720   1.401       .  A
O3712      H3728   0.992       .  S
O3714      H3725   0.992       .  S
C3716      C3717   1.402       .  A
C3716      O3721   1.371       .  S
C3717      C3718   1.403       .  A
C3717      H3722   1.084       .  S
C3718      C3719   1.405       .  A
C3719      C3720   1.394       .  A
C3719      O3723   1.372       .  S
C3720      H3724   1.084       .  S
O3721      H3726   0.992       .  S
O3723      H3727   0.992       .  S
C3729      C3730   1.403       .  A
C3729      C3734   1.404       .  A
C3729      H3739   1.083       .  S
C3730      C3735   1.483       .  S
C3730      C3731   1.408       .  A
C3731      C3732   1.396       .  A
C3731      O3736   1.372       .  S
C3732      C3733   1.406       .  A
C3732      H3737   1.083       .  S
C3733      C3734   1.414       .  A
C3734      O3738   1.371       .  S
C3735      C3740   1.410       .  A
C3735      C3744   1.404       .  A
O3736      H3752   0.992       .  S
O3738      H3749   0.992       .  S
C3740      C3741   1.402       .  A
C3740      O3745   1.371       .  S
C3741      C3742   1.402       .  A
C3741      H3746   1.084       .  S
C3742      C3743   1.405       .  A
C3743      C3744   1.397       .  A
C3743      O3747   1.372       .  S
C3744      H3748   1.084       .  S
O3745      H3750   0.992       .  S
O3747      H3751   0.992       .  S
C3753      C3754   1.403       .  A
C3753      C3758   1.396       .  A
C3753      H3763   1.084       .  S
C3754      C3759   1.481       .  S
C3754      C3755   1.408       .  A
C3755      C3756   1.403       .  A
C3755      O3760   1.371       .  S
C3756      C3757   1.405       .  A
C3756      H3761   1.084       .  S
C3757      C3758   1.408       .  A
C3758      O3762   1.371       .  S
C3759      C3764   1.405       .  A
C3759      C3768   1.404       .  A
O3760      H3776   0.992       .  S
O3762      H3773   0.991       .  S
C3764      C3765   1.394       .  A
C3764      O3769   1.372       .  S
C3765      C3766   1.406       .  A
C3765      H3770   1.083       .  S
C3766      C3767   1.414       .  A
C3767      C3768   1.406       .  A
C3767      O3771   1.371       .  S
C3768      H3772   1.083       .  S
O3769      H3774   0.992       .  S
O3771      H3775   0.992       .  S
C3777      C3778   1.402       .  A
C3777      C3782   1.403       .  A
C3777      H3787   1.083       .  S
C3778      C3783   1.489       .  S
C3778      C3779   1.406       .  A
C3779      C3780   1.396       .  A
C3779      O3784   1.372       .  S
C3780      C3781   1.416       .  A
C3780      H3785   1.080       .  S
C3781      C3782   1.422       .  A
C3782      O3786   1.374       .  S
C3783      C3788   1.407       .  A
C3783      C3792   1.403       .  A
O3784      H3800   0.992       .  S
O3786      H3797   0.992       .  S
C3788      C3789   1.399       .  A
C3788      O3793   1.372       .  S
C3789      C3790   1.411       .  A
C3789      H3794   1.081       .  S
C3790      C3791   1.418       .  A
C3791      C3792   1.401       .  A
C3791      O3795   1.372       .  S
C3792      H3796   1.083       .  S
O3793      H3798   0.992       .  S
O3795      H3799   0.992       .  S
