geometry optimzed in LAMMPS
_audit_creation_date              2020-11-30 
_audit_creation_method            'lammps2cif' 
_symmetry_space_group_name_H-M    'P1' 
_symmetry_Int_Tables_number       1 
_symmetry_cell_setting            triclinic 
loop_ 
_symmetry_equiv_pos_as_xyz 
  x,y,z 
_cell_length_a                    28.8035745 
_cell_length_b                    28.424777415854077 
_cell_length_c                    27.687965240979132 
_cell_angle_alpha                 92.18531757221236 
_cell_angle_beta                  92.5374060131804 
_cell_angle_gamma                 92.2724943794395 
loop_ 
_atom_site_label 
_atom_site_type_symbol 
_atom_site_fract_x 
_atom_site_fract_y 
_atom_site_fract_z 
_atom_site_charge 
O1          O  0.28741054  0.64934136  0.78990818    -0.79700
O2          O  0.31437727  0.82228764  0.72969815    -0.79700
O3          O  0.24876127  0.69530800  0.64531787    -0.79700
O4          O  0.25860964  0.79465941  0.83981708    -0.79700
O5          O  0.30446114  0.74596500  0.67334207    -0.79800
O6          O  0.31011318  0.74746527  0.81030996    -0.79700
O7          O  0.26754398  0.86130437  0.77493937    -0.79700
O8          O  0.25895580  0.65613865  0.71512387    -0.79800
C9          C  0.28708489  0.63627289  0.74501420     1.10000
C10         C  0.30903383  0.85458039  0.76049278     1.09900
C11         C  0.29194963  0.70934603  0.64854770     1.10000
C12         C  0.29797815  0.77747288  0.84301237     1.09900
O13         O  0.22271268  0.71430745  0.83557321    -0.79700
O14         O  0.21948584  0.77233990  0.63390176    -0.79800
O15         O  0.16368102  0.64905082  0.69025268    -0.79700
O16         O  0.16957664  0.82966663  0.73927221    -0.79700
O17         O  0.22389237  0.85315660  0.69171324    -0.79800
O18         O  0.19427782  0.66386554  0.76444028    -0.79700
O19         O  0.16872035  0.76143871  0.80933922    -0.79700
O20         O  0.15867004  0.74703295  0.66881776    -0.79800
Co21       Co  0.25713609  0.70732347  0.77611048     1.51500
Co22       Co  0.26467653  0.79686562  0.68524605     1.51700
Co23       Co  0.20535914  0.70458262  0.70153795     1.51600
Co24       Co  0.21576108  0.80904859  0.78716836     1.51500
O25         O  0.23647142  0.76057761  0.73810192    -1.41600
C26         C  0.18120777  0.72801251  0.83599494     1.09900
C27         C  0.17615043  0.77135945  0.63579894     1.10000
C28         C  0.16272181  0.64214754  0.73571705     1.09900
C29         C  0.18253303  0.85561211  0.70626081     1.09900
O30         O  0.76523942  0.30357943  0.69474856    -0.79700
O31         O  0.74663741  0.32432333  0.81489920    -0.79700
O32         O  0.64285987  0.23602971  0.71707016    -0.79700
O33         O  0.85593759  0.23832804  0.80813306    -0.79700
O34         O  0.67462733  0.30175074  0.74351695    -0.79800
O35         O  0.83818813  0.29868139  0.76836879    -0.79700
O36         O  0.79076540  0.27874662  0.86046013    -0.79700
O37         O  0.71544787  0.24913389  0.66095335    -0.79800
C38         C  0.73152862  0.29215371  0.66482705     1.10000
C39         C  0.77855427  0.32054548  0.84807822     1.09900
C40         C  0.64175239  0.28052263  0.71904652     1.10000
C41         C  0.86581227  0.28019028  0.79839585     1.09900
O42         O  0.84746365  0.19869114  0.73153309    -0.79700
O43         O  0.65106884  0.21106183  0.79925693    -0.79800
O44         O  0.74985892  0.15668140  0.69524423    -0.79700
O45         O  0.73686058  0.18254743  0.85193526    -0.79700
O46         O  0.71293825  0.25096172  0.86926535    -0.79800
O47         O  0.78745710  0.21088266  0.65957595    -0.79700
O48         O  0.80869175  0.15324446  0.78126113    -0.79700
O49         O  0.68541564  0.15442130  0.75979179    -0.79800
Co50       Co  0.80498969  0.25352378  0.71807295     1.51500
Co51       Co  0.70022536  0.27023809  0.80213943     1.51700
Co52       Co  0.70316609  0.20080851  0.71282041     1.51600
Co53       Co  0.79293343  0.21298187  0.82156128     1.51500
O54         O  0.75083812  0.23465724  0.76379318    -1.41600
C55         C  0.83950472  0.15787487  0.74855634     1.09900
C56         C  0.65595719  0.16621758  0.78954101     1.10000
C57         C  0.77334133  0.16819702  0.66066894     1.09900
C58         C  0.71115476  0.20810974  0.87722888     1.09900
O59         O  0.66974684  0.72365944  0.13459895    -0.79700
O60         O  0.80561710  0.73056731  0.14049382    -0.79700
O61         O  0.70384857  0.83126974  0.20238994    -0.79700
O62         O  0.76539356  0.62493911  0.20681216    -0.79700
O63         O  0.73938721  0.80011952  0.14177165    -0.79800
O64         O  0.74025807  0.65200018  0.14031133    -0.79700
O65         O  0.83310197  0.69131143  0.20168570    -0.79700
O66         O  0.64108136  0.76347882  0.19515018    -0.79800
C67         C  0.64178007  0.75386763  0.14995862     1.10000
C68         C  0.83543468  0.70391757  0.15773181     1.09900
C69         C  0.71359592  0.83152386  0.15803056     1.10000
C70         C  0.76780317  0.62486038  0.16189802     1.09900
O71         O  0.69257119  0.62654914  0.23436965    -0.79700
O72         O  0.77820034  0.83091744  0.23775274    -0.79800
O73         O  0.67078977  0.72738640  0.28601424    -0.79700
O74         O  0.80621178  0.73177549  0.29452059    -0.79700
O75         O  0.84135117  0.76776198  0.23743239    -0.79800
O76         O  0.63391151  0.68839894  0.22471804    -0.79700
O77         O  0.73454886  0.66248392  0.29460496    -0.79700
O78         O  0.74026516  0.79925257  0.29564781    -0.79800
Co79       Co  0.68902456  0.67691245  0.18303902     1.51500
Co80       Co  0.78639740  0.77734420  0.18947731     1.51700
Co81       Co  0.69286493  0.77621517  0.24463511     1.51600
Co82       Co  0.78167816  0.68190687  0.24856204     1.51500
O83         O  0.73733779  0.72820285  0.21571543    -1.41600
C84         C  0.70507846  0.63015200  0.27946058     1.09900
C85         C  0.76979621  0.82974822  0.28245591     1.10000
C86         C  0.63684060  0.70116356  0.26942983     1.09900
C87         C  0.83905885  0.75851367  0.28210155     1.09900
C88         C  0.53328809  0.00702029  0.03067264     0.02700
C89         C  0.49576956  0.96800105  0.03160185     0.02700
C90         C  0.45328507  0.96846837  0.99637068     0.02700
C91         C  0.45332553  0.00149784  0.95263870     0.02700
C92         C  0.49048146  0.04128059  0.95535540     0.02700
C93         C  0.52570352  0.04823322  0.99864797     0.02700
N94         N  0.58012462  0.00305391  0.05930518    -0.03100
C95         C  0.60727488  0.96725707  0.04296042    -0.00500
C96         C  0.62993111  0.98441721  0.00361397    -0.23300
C97         C  0.63795221  0.03073912  0.01621699    -0.23600
C98         C  0.61470039  0.03858985  0.05824940    -0.00600
H99         H  0.65209604  0.96629839  0.97931251     0.13200
H100        H  0.66758963  0.04995005  0.00411400     0.13300
N101        N  0.55332042  0.09574837  0.01179581    -0.03100
C102        C  0.54574867  0.11794408  0.05644532    -0.00500
C103        C  0.50628692  0.14264968  0.05050705    -0.23300
C104        C  0.51152057  0.15881371  0.00557633    -0.23600
C105        C  0.54862938  0.13563717  0.98539614    -0.00600
H106        H  0.48904919  0.16263293  0.07803823     0.13200
H107        H  0.49259777  0.18798611  0.99448873     0.13300
N108        N  0.41826962  0.99658226  0.90662009    -0.03100
C109        C  0.37183740  0.01172257  0.90722571    -0.00500
C110        C  0.34106502  0.97484219  0.89322979    -0.23300
C111        C  0.36551265  0.93855065  0.87957046    -0.23600
C112        C  0.41130246  0.95395319  0.87841222    -0.00600
H113        H  0.30346481  0.97500869  0.88754505     0.13200
H114        H  0.34925572  0.90620113  0.86453231     0.13300
N115        N  0.48973890  0.07640644  0.91571855    -0.03100
C116        C  0.46402833  0.11671611  0.91970595    -0.00500
C117        C  0.48906030  0.15584849  0.90471165    -0.23300
C118        C  0.52468091  0.13950346  0.88107494    -0.23600
C119        C  0.52731314  0.09232962  0.88944691    -0.00600
H120        H  0.47588472  0.19056695  0.89906554     0.13200
H121        H  0.54594031  0.16032146  0.85804555     0.13300
N122        N  0.50238389  0.92611791  0.06575002    -0.03100
C123        C  0.53403547  0.89460395  0.04934448    -0.00500
C124        C  0.51067075  0.86726802  0.01336168    -0.23300
C125        C  0.46665619  0.86286386  0.02933232    -0.23600
C126        C  0.46654091  0.89222822  0.06965609    -0.00600
H127        H  0.52550656  0.84008668  0.99134942     0.13200
H128        H  0.44314463  0.83295382  0.02130503     0.13300
N129        N  0.41148264  0.93651129  0.00845521    -0.03100
C130        C  0.38296586  0.95127760  0.04563509    -0.00500
C131        C  0.34646548  0.97277439  0.02352910    -0.23300
C132        C  0.33896755  0.94515721  0.98302242    -0.23600
C133        C  0.37857855  0.91953595  0.97435325    -0.00600
H134        H  0.31759703  0.98855233  0.04063790     0.13200
H135        H  0.30458423  0.93906556  0.96591869     0.13300
C136        C  0.04135710  0.49734906  0.96183082     0.02700
C137        C  0.01177387  0.45304626  0.96990962     0.02700
C138        C  0.97169941  0.45522639  0.00410288     0.02700
C139        C  0.97542219  0.49303601  0.04382418     0.02700
C140        C  0.01287788  0.53303282  0.04451089     0.02700
C141        C  0.04211180  0.53677061  0.99928992     0.02700
N142        N  0.07209650  0.58009636  0.98863492    -0.03100
C143        C  0.06048289  0.60355363  0.94739860    -0.00500
C144        C  0.02270578  0.63036866  0.95833173    -0.23300
C145        C  0.03509458  0.64592674  0.00389794    -0.23600
C146        C  0.07214579  0.61898238  0.01836607    -0.00600
H147        H  0.00166752  0.65130245  0.93488511     0.13200
H148        H  0.02396564  0.67864309  0.01972551     0.13300
N149        N  0.07139352  0.50248301  0.91646826    -0.03100
C150        C  0.05576467  0.52902826  0.87717492    -0.00500
C151        C  0.02142295  0.50134570  0.85252210    -0.23300
C152        C  0.03791536  0.45763148  0.85688897    -0.23600
C153        C  0.07659536  0.46201500  0.88958809    -0.00600
H154        H  0.00131093  0.51011291  0.82042579     0.13200
H155        H  0.03163997  0.43147432  0.82770393     0.13300
N156        N  0.01934472  0.56908610  0.08892545    -0.03100
C157        C  0.00006433  0.61445399  0.09115514    -0.00500
C158        C  0.03282807  0.64840988  0.10723668    -0.23300
C159        C  0.06808301  0.62628708  0.12693938    -0.23600
C160        C  0.06083041  0.57831671  0.11821717    -0.00600
H161        H  0.02823714  0.68597335  0.11182281     0.13200
H162        H  0.09564304  0.64494820  0.14779883     0.13300
N163        N  0.94314212  0.48754120  0.08523838    -0.03100
C164        C  0.93734865  0.52545501  0.11607097    -0.00500
C165        C  0.97044052  0.52412508  0.15333480    -0.23300
C166        C  0.98739559  0.48025858  0.15183520    -0.23600
C167        C  0.95654208  0.45578467  0.11912063    -0.00600
H168        H  0.97384174  0.54732682  0.18444164     0.13200
H169        H  0.00528161  0.46679958  0.18325778     0.13300
N170        N  0.02609497  0.40646272  0.94692443    -0.03100
C171        C  0.99816758  0.36632744  0.94534181    -0.00500
C172        C  0.01191168  0.33966057  0.98377216    -0.23300
C173        C  0.05408429  0.35684042  0.00019204    -0.23600
C174        C  0.06666065  0.38590521  0.96364264    -0.00600
H175        H  0.99756514  0.30609037  0.99344460     0.13200
H176        H  0.07504092  0.33489725  0.02229368     0.13300
N177        N  0.92872101  0.41975639  0.00056334    -0.03100
C178        C  0.92937566  0.37544648  0.02194005    -0.00500
C179        C  0.91571190  0.33947336  0.98833894    -0.23300
C180        C  0.89706481  0.35964481  0.95009275    -0.23600
C181        C  0.90266662  0.40791110  0.95704103    -0.00600
H182        H  0.91064015  0.30208803  0.99451560     0.13200
H183        H  0.87719022  0.34005016  0.92149744     0.13300
C184        C  0.50298203  0.46028924  0.55008898     0.02700
C185        C  0.54264245  0.46185274  0.51531341     0.02700
C186        C  0.54422072  0.50028299  0.47724655     0.02700
C187        C  0.50813986  0.53985604  0.47660198     0.02700
C188        C  0.47396348  0.54319202  0.51947584     0.02700
C189        C  0.47012377  0.50212161  0.55449943     0.02700
N190        N  0.49454111  0.41508700  0.57913994    -0.03100
C191        C  0.52031556  0.37479356  0.57335231    -0.00500
C192        C  0.50107164  0.35020965  0.53243987    -0.23300
C193        C  0.45829748  0.36726906  0.52439523    -0.23600
C194        C  0.45262888  0.39087920  0.56838676    -0.00600
H195        H  0.50915820  0.31594195  0.51785548     0.13200
H196        H  0.43254804  0.34840213  0.50077948     0.13300
N197        N  0.44309743  0.58604704  0.53128012    -0.03100
C198        C  0.44063536  0.63035627  0.51116343    -0.00500
C199        C  0.47392840  0.66116919  0.53571775    -0.23300
C200        C  0.48932639  0.63916494  0.57430506    -0.23600
C201        C  0.45117636  0.60912789  0.57612791    -0.00600
H202        H  0.48495864  0.69670498  0.52876459     0.13200
H203        H  0.51186080  0.65644824  0.60185740     0.13300
N204        N  0.58132589  0.49700808  0.43780303    -0.03100
C205        C  0.57806729  0.52230669  0.39675800    -0.00500
C206        C  0.54334720  0.49868966  0.36701311    -0.23300
C207        C  0.53793155  0.45513548  0.38376456    -0.23600
C208        C  0.58063511  0.45626126  0.40848071    -0.00600
H209        H  0.53705965  0.50144532  0.32907417     0.13200
H210        H  0.51997331  0.42675095  0.36273548     0.13300
N211        N  0.50784151  0.57393372  0.43247140    -0.03100
C212        C  0.47939239  0.61149008  0.42735454    -0.00500
C213        C  0.50409181  0.65047237  0.44910729    -0.23300
C214        C  0.54607119  0.63651806  0.46536474    -0.23600
C215        C  0.54643219  0.60453628  0.42711525    -0.00600
H216        H  0.49395116  0.68683153  0.44984974     0.13200
H217        H  0.57299863  0.66051361  0.48107649     0.13300
N218        N  0.43227328  0.50329680  0.59409829    -0.03100
C219        C  0.43280609  0.53877578  0.63079740    -0.00500
C220        C  0.47349326  0.53409543  0.65799342    -0.23300
C221        C  0.46824654  0.48759542  0.66373826    -0.23600
C222        C  0.43272231  0.47186229  0.63051125    -0.00600
H223        H  0.49070820  0.55691435  0.68570591     0.13200
H224        H  0.47945681  0.47384869  0.69766006     0.13300
N225        N  0.58111478  0.42427299  0.51999461    -0.03100
C226        C  0.61037569  0.42782159  0.56178261    -0.00500
C227        C  0.63782396  0.46792512  0.55592229    -0.23300
C228        C  0.65009054  0.45754817  0.51039143    -0.23600
C229        C  0.61787500  0.42364867  0.48995783    -0.00600
H230        H  0.66266191  0.48582123  0.58133621     0.13200
H231        H  0.68597654  0.46240429  0.50305909     0.13300
C232        C  0.02522009  0.96379153  0.49401220     0.02700
C233        C  0.98772025  0.95847194  0.45430773     0.02700
C234        C  0.94901568  0.99274247  0.45423676     0.02700
C235        C  0.94165390  0.02207819  0.50172219     0.02700
C236        C  0.97902565  0.02777737  0.54110297     0.02700
C237        C  0.02139823  0.99958276  0.53565115     0.02700
N238        N  0.97726115  0.06641658  0.58248939    -0.03100
C239        C  0.99014209  0.11235188  0.56958945    -0.00500
C240        C  0.95232628  0.14023552  0.57194042    -0.23300
C241        C  0.92582174  0.12052511  0.60505439    -0.23600
C242        C  0.93908437  0.07540650  0.61242427    -0.00600
H243        H  0.95213148  0.17782148  0.56703414     0.13200
H244        H  0.90226028  0.14033829  0.62653477     0.13300
N245        N  0.05950634  0.00523869  0.57454583    -0.03100
C246        C  0.08434813  0.04756099  0.58425400    -0.00500
C247        C  0.08298760  0.05801086  0.63301712    -0.23300
C248        C  0.05770243  0.02397347  0.65400842    -0.23600
C249        C  0.05305823  0.98732188  0.62009148    -0.00600
H250        H  0.10445468  0.08404984  0.65368619     0.13200
H251        H  0.06113789  0.02018263  0.69267887     0.13300
N252        N  0.06759320  0.93325899  0.49098086    -0.03100
C253        C  0.09350152  0.92551803  0.53260214    -0.00500
C254        C  0.13043857  0.95848619  0.53302763    -0.23300
C255        C  0.13348084  0.97503073  0.48781967    -0.23600
C256        C  0.10196675  0.94735185  0.46010692    -0.00600
H257        H  0.16071219  0.95829215  0.55698544     0.13200
H258        H  0.16623424  0.98809133  0.47560583     0.13300
N259        N  0.89631135  0.04445474  0.51308008    -0.03100
C260        C  0.86250276  0.04740779  0.47810756    -0.00500
C261        C  0.83189318  0.00830356  0.48145045    -0.23300
C262        C  0.84309160  0.98899820  0.52408889    -0.23600
C263        C  0.86769668  0.02599384  0.54761077    -0.00600
H264        H  0.80139980  0.99716405  0.45953769     0.13200
H265        H  0.82430821  0.95974925  0.53843149     0.13300
N266        N  0.91943768  0.99743857  0.40657795    -0.03100
C267        C  0.91220159  0.04073161  0.38459276    -0.00500
C268        C  0.86553491  0.04550575  0.37306796    -0.23300
C269        C  0.84278274  0.00582172  0.38160769    -0.23600
C270        C  0.87515720  0.97506560  0.39763032    -0.00600
H271        H  0.84842545  0.07339454  0.35569867     0.13200
H272        H  0.80689997  0.99782924  0.36929504     0.13300
N273        N  0.98581635  0.91530558  0.41810489    -0.03100
C274        C  0.01889969  0.88106942  0.42260810    -0.00500
C275        C  0.00744129  0.85522642  0.46130134    -0.23300
C276        C  0.96058107  0.85917379  0.46436158    -0.23600
C277        C  0.94840274  0.88458744  0.42378383    -0.00600
H278        H  0.02752074  0.82790697  0.47608559     0.13200
H279        H  0.93982412  0.83299139  0.48197400     0.13300
O280        O  0.23361827  0.18879747  0.65605506    -0.79700
O281        O  0.24616128  0.32200168  0.66785639    -0.79700
O282        O  0.13400805  0.22251269  0.73082352    -0.79700
O283        O  0.34607284  0.27416477  0.73679792    -0.79700
O284        O  0.16287694  0.25448141  0.66905270    -0.79800
O285        O  0.30698607  0.24635983  0.67275027    -0.79700
O286        O  0.29321709  0.34199378  0.73171013    -0.79700
O287        O  0.18934201  0.15246683  0.70609188    -0.79800
C288        C  0.20135857  0.15934124  0.66273607     1.10000
C289        C  0.27984447  0.34821109  0.68789396     1.09900
C290        C  0.13114983  0.22857711  0.68642789     1.10000
C291        C  0.34205899  0.26830194  0.69097561     1.09900
O292        O  0.33076493  0.19797595  0.76259501    -0.79700
O293        O  0.15289175  0.29473053  0.77008382    -0.79800
O294        O  0.23564378  0.16811728  0.80808085    -0.79700
O295        O  0.24682862  0.32368252  0.82298233    -0.79700
O296        O  0.22073783  0.35481455  0.75826659    -0.79800
O297        O  0.26145799  0.13782383  0.74343160    -0.79700
O298        O  0.30530216  0.24062720  0.82399392    -0.79700
O299        O  0.18184686  0.24305762  0.82037635    -0.79800
Co300      Co  0.28013670  0.19723219  0.70958145     1.51500
Co301      Co  0.19856974  0.30058805  0.71578894     1.51700
Co302      Co  0.18985556  0.19967531  0.76591053     1.51600
Co303      Co  0.29255783  0.29089397  0.77866108     1.51500
O304        O  0.24028145  0.24755593  0.74251748    -1.41600
C305        C  0.33207415  0.20974633  0.80771037     1.09900
C306        C  0.15655649  0.27741447  0.81240254     1.10000
C307        C  0.25831906  0.13643153  0.78871259     1.09900
C308        C  0.22382684  0.35613145  0.80324519     1.09900
O309        O  0.79765095  0.15235972  0.30466843    -0.79700
O310        O  0.79365798  0.34533022  0.23174481    -0.79700
O311        O  0.83374438  0.25164523  0.18860029    -0.79700
O312        O  0.84035584  0.24422339  0.35038052    -0.79700
O313        O  0.77315418  0.28389286  0.15939566    -0.79800
O314        O  0.77473238  0.21869884  0.37336645    -0.79700
O315        O  0.84968132  0.31298389  0.27425334    -0.79700
O316        O  0.84608664  0.18947650  0.25753392    -0.79800
C317        C  0.83950992  0.15946360  0.28894379     1.10000
C318        C  0.83702095  0.34201321  0.24287553     1.09900
C319        C  0.81590615  0.27660238  0.15713076     1.10000
C320        C  0.81733660  0.21714198  0.37723714     1.09900
O321        O  0.69334982  0.24655719  0.33703480    -0.79700
O322        O  0.68993929  0.25102243  0.20450940    -0.79800
O323        O  0.75881942  0.14117076  0.22820279    -0.79700
O324        O  0.76449482  0.35600332  0.30893920    -0.79700
O325        O  0.70498561  0.31822405  0.27410399    -0.79800
O326        O  0.69816311  0.16845527  0.25922239    -0.79700
O327        O  0.75176281  0.29359716  0.36884460    -0.79700
O328        O  0.73758513  0.20697026  0.16473147    -0.79800
Co329      Co  0.74098960  0.19900914  0.31340211     1.51500
Co330      Co  0.74109621  0.29602133  0.22153688     1.51700
Co331      Co  0.79343797  0.20181384  0.21396656     1.51600
Co332      Co  0.80178115  0.29666250  0.32076449     1.51500
O333        O  0.76959326  0.24832763  0.26775661    -1.41600
C334        C  0.70898835  0.27996035  0.36791579     1.09900
C335        C  0.69601358  0.21932446  0.17282156     1.10000
C336        C  0.71513528  0.13884256  0.23002096     1.09900
C337        C  0.72080689  0.35345897  0.29864389     1.09900
O338        O  0.32229615  0.67508646  0.25765525    -0.79700
O339        O  0.20209956  0.66107717  0.26860793    -0.79700
O340        O  0.29869050  0.75121777  0.37173631    -0.79700
O341        O  0.22038381  0.73804613  0.15408105    -0.79700
O342        O  0.27043244  0.68360141  0.34376006    -0.79800
O343        O  0.25084689  0.67577509  0.17891114    -0.79700
O344        O  0.16084482  0.70607658  0.22047786    -0.79700
O345        O  0.35506947  0.73562360  0.30251808    -0.79800
C346        C  0.35335547  0.69164313  0.28878774     1.10000
C347        C  0.17002651  0.66438255  0.23610839     1.09900
C348        C  0.29686323  0.70671370  0.37484169     1.10000
C349        C  0.22318535  0.69492368  0.14922422     1.09900
O350        O  0.29272312  0.77323432  0.16230875    -0.79700
O351        O  0.22047839  0.77230197  0.36204217    -0.79800
O352        O  0.33098897  0.82608270  0.25543986    -0.79700
O353        O  0.17461549  0.80791008  0.26478163    -0.79700
O354        O  0.15252554  0.74408414  0.29825289    -0.79800
O355        O  0.35902487  0.76287431  0.22493509    -0.79700
O356        O  0.24540905  0.82441876  0.19456818    -0.79700
O357        O  0.25666404  0.83100370  0.32724319    -0.79800
Co358      Co  0.30135621  0.72140405  0.21032708     1.51500
Co359      Co  0.21575658  0.71637126  0.31358330     1.51700
Co360      Co  0.30587755  0.78527021  0.30913991     1.51600
Co361      Co  0.20380791  0.76907677  0.21393822     1.51500
O362        O  0.25681900  0.74835189  0.26182698    -1.41600
C363        C  0.27730158  0.81485612  0.16467741     1.09900
C364        C  0.22631819  0.81660775  0.35669647     1.10000
C365        C  0.36054673  0.80745398  0.22819911     1.09900
C366        C  0.14562612  0.78709953  0.29014743     1.09900
C367        C  0.06911461  0.88159984  0.34817866    -0.05400
C368        C  0.04339876  0.85480403  0.38096565     0.00600
C369        C  0.04532459  0.80377813  0.37418776    -0.08000
C370        C  0.07710938  0.78482356  0.34201058    -0.05400
C371        C  0.10614680  0.81200214  0.31405221     0.00600
C372        C  0.09758667  0.86090640  0.31279030    -0.07900
C373        C  0.11389141  0.89025326  0.27164787     0.62500
H374        H  0.06699253  0.91954058  0.35062507     0.13200
H375        H  0.08074437  0.74707364  0.33985261     0.13200
C376        C  0.01779471  0.76578996  0.40019498     0.62700
F377        F  0.09578775  0.93465671  0.27341051    -0.22500
F378        F  0.09867649  0.86818230  0.22809119    -0.19800
F379        F  0.16173523  0.89566320  0.27293302    -0.19500
F380        F  0.97379710  0.77831305  0.41011430    -0.19500
F381        F  0.04172440  0.75479953  0.44235661    -0.19800
F382        F  0.01170618  0.72460548  0.37174460    -0.22500
C383        C  0.93095553  0.06406527  0.30076430    -0.05400
C384        C  0.94256755  0.06945979  0.35138591     0.00600
C385        C  0.94567405  0.11781317  0.36428953    -0.08000
C386        C  0.91319811  0.14858004  0.34255168    -0.05400
C387        C  0.88131953  0.13175531  0.30491577     0.00600
C388        C  0.89621189  0.09180130  0.27847884    -0.07900
C389        C  0.87787919  0.08057804  0.22711744     0.62500
H390        H  0.94893757  0.03907306  0.27896466     0.13200
H391        H  0.91404147  0.18539053  0.35249772     0.13200
C392        C  0.98708870  0.13515966  0.39559907     0.62700
F393        F  0.89839519  0.04164620  0.20709140    -0.22500
F394        F  0.88724729  0.11856024  0.19883007    -0.19800
F395        F  0.83034720  0.07144499  0.22644682    -0.19500
F396        F  0.02701542  0.12790737  0.37086874    -0.19500
F397        F  0.98911370  0.10970527  0.43710912    -0.19800
F398        F  0.98553905  0.18260863  0.40752135    -0.22500
C399        C  0.88323343  0.13258495  0.45732262    -0.05400
C400        C  0.84925153  0.09449388  0.45808612     0.00600
C401        C  0.80367980  0.10310142  0.43974063    -0.08000
C402        C  0.79897093  0.13963684  0.40848510    -0.05400
C403        C  0.83273993  0.17684288  0.40586167     0.00600
C404        C  0.87274471  0.17623502  0.43642364    -0.07900
C405        C  0.89920587  0.22223159  0.45152854     0.62500
H406        H  0.91638801  0.12930671  0.47634319     0.13200
H407        H  0.76598056  0.14041601  0.38819815     0.13200
C408        C  0.75830801  0.07833878  0.45315986     0.62700
F409        F  0.93290132  0.21522146  0.48703064    -0.22500
F410        F  0.86882017  0.25409808  0.46996977    -0.19800
F411        F  0.91991178  0.24266859  0.41309442    -0.19500
F412        F  0.76078015  0.06218632  0.49941818    -0.19500
F413        F  0.74599384  0.04186183  0.42009295    -0.19800
F414        F  0.72255362  0.10959199  0.45247869    -0.22500
C415        C  0.19515661  0.89812180  0.37447511    -0.05400
C416        C  0.19553932  0.84985821  0.38477074     0.00600
C417        C  0.16329302  0.83354208  0.41914286    -0.08000
C418        C  0.13134233  0.86511202  0.43871291    -0.05400
C419        C  0.13046041  0.91336329  0.42874362     0.00600
C420        C  0.16279237  0.92949229  0.39430837    -0.07900
C421        C  0.16332248  0.97935111  0.37617389     0.62500
H422        H  0.21939383  0.91135721  0.34891125     0.13200
H423        H  0.10563757  0.85144771  0.46191377     0.13200
C424        C  0.16250625  0.78324604  0.43724730     0.62700
F425        F  0.16939228  0.97874117  0.32690499    -0.22500
F426        F  0.19992027  0.00570629  0.39885373    -0.19800
F427        F  0.12217233  0.00125366  0.38424068    -0.19500
F428        F  0.20674784  0.77155243  0.45218118    -0.19500
F429        F  0.14616382  0.75098134  0.40151881    -0.19800
F430        F  0.13427535  0.77802242  0.47598183    -0.22500
C431        C  0.18603347  0.08102584  0.62215832    -0.05400
C432        C  0.18071583  0.12966056  0.62123658     0.00600
C433        C  0.16038975  0.14665514  0.57749487    -0.08000
C434        C  0.12850928  0.11489829  0.55005909    -0.05400
C435        C  0.12766384  0.06636016  0.55984483     0.00600
C436        C  0.17232628  0.05438932  0.57962819    -0.07900
C437        C  0.21258717  0.04925661  0.54536312     0.62500
H438        H  0.21084864  0.06820575  0.64838147     0.13200
H439        H  0.10579003  0.12704350  0.52141308     0.13200
C440        C  0.18155124  0.18920326  0.55401443     0.62700
F441        F  0.25110413  0.07782303  0.56045793    -0.22500
F442        F  0.19964124  0.06215989  0.49913092    -0.19800
F443        F  0.22697842  0.00352918  0.54347258    -0.19500
F444        F  0.22816671  0.18209852  0.54800404    -0.19500
F445        F  0.17785300  0.22987132  0.58175978    -0.19800
F446        F  0.16104073  0.19526739  0.50875418    -0.22500
C447        C  0.03415751  0.13785111  0.64608691    -0.05400
C448        C  0.02912569  0.14291194  0.59616647     0.00600
C449        C  0.05004264  0.18534126  0.57873141    -0.08000
C450        C  0.08120457  0.21383685  0.60962063    -0.05400
C451        C  0.09259701  0.20202810  0.65736411     0.00600
C452        C  0.06657893  0.16390836  0.67675056    -0.07900
C453        C  0.07101799  0.14913610  0.72942075     0.62500
H454        H  0.01452595  0.10965898  0.66063796     0.13200
H455        H  0.09666288  0.24581629  0.59614957     0.13200
C456        C  0.03758156  0.20490326  0.53010534     0.62700
F457        F  0.04669849  0.10784974  0.73597454    -0.22500
F458        F  0.05409767  0.18341687  0.75980388    -0.19800
F459        F  0.11569669  0.13975769  0.74410002    -0.19500
F460        F  0.01101891  0.24385821  0.53707358    -0.19500
F461        F  0.01327516  0.17233430  0.50003801    -0.19800
F462        F  0.07706806  0.21896982  0.50726325    -0.22500
C463        C  0.68278260  0.37029390  0.46813330    -0.05400
C464        C  0.63538003  0.38009264  0.46024573     0.00600
C465        C  0.60938277  0.34753233  0.42600764    -0.08000
C466        C  0.63336642  0.31388521  0.39758064    -0.05400
C467        C  0.68126552  0.30755100  0.40423219     0.00600
C468        C  0.70496043  0.33362864  0.44391428    -0.07900
C469        C  0.75286423  0.32133122  0.46456606     0.62500
H470        H  0.70298592  0.38965471  0.49652385     0.13200
H471        H  0.61423657  0.29232832  0.36973346     0.13200
C472        C  0.55673781  0.34327290  0.41897811     0.62700
F473        F  0.75884307  0.33480850  0.51313808    -0.22500
F474        F  0.78736531  0.34430746  0.44011943    -0.19800
F475        F  0.75818059  0.27316388  0.46129397    -0.19500
F476        F  0.53470075  0.37740043  0.44467913    -0.19500
F477        F  0.54131671  0.29964301  0.43374881    -0.19800
F478        F  0.54348064  0.34551129  0.37063919    -0.22500
C479        C  0.35706129  0.42480763  0.60885326    -0.05400
C480        C  0.38697158  0.44738203  0.64615674     0.00600
C481        C  0.36915064  0.44754663  0.69435195    -0.08000
C482        C  0.32878124  0.42010357  0.70165220    -0.05400
C483        C  0.30656209  0.38892143  0.66673798     0.00600
C484        C  0.31684997  0.39597231  0.61829020    -0.07900
C485        C  0.28297273  0.37864149  0.57760891     0.62500
H486        H  0.36628208  0.42859095  0.57169435     0.13200
H487        H  0.31529697  0.42101382  0.73769155     0.13200
C488        C  0.38553455  0.47419415  0.74193348     0.62700
F489        F  0.23999465  0.39694925  0.58521695    -0.22500
F490        F  0.27815031  0.33034544  0.57607062    -0.19800
F491        F  0.29723568  0.39269366  0.53310610    -0.19500
F492        F  0.35046523  0.50283020  0.75619340    -0.19500
F493        F  0.42513968  0.50193340  0.74207624    -0.19800
F494        F  0.39237107  0.44215923  0.77776567    -0.22500
C495        C  0.45969986  0.66612871  0.36084427    -0.05400
C496        C  0.44832829  0.62322983  0.38318619     0.00600
C497        C  0.40975902  0.59542248  0.36137043    -0.08000
C498        C  0.38051288  0.61608699  0.32567651    -0.05400
C499        C  0.39002056  0.66203802  0.31005188     0.00600
C500        C  0.43367316  0.68360848  0.32288838    -0.07900
C501        C  0.45434353  0.72503938  0.29671724     0.62500
H502        H  0.49076092  0.68686325  0.37151181     0.13200
H503        H  0.34941022  0.59700065  0.31131378     0.13200
C504        C  0.39943064  0.54406142  0.37217063     0.62700
F505        F  0.50205014  0.72195946  0.29471125    -0.22500
F506        F  0.44512238  0.76689445  0.32083349    -0.19800
F507        F  0.43687585  0.72515811  0.24950097    -0.19500
F508        F  0.35280488  0.53611169  0.37909464    -0.19500
F509        F  0.42379472  0.53014038  0.41275759    -0.19800
F510        F  0.41061189  0.51569123  0.33306802    -0.22500
C511        C  0.70341921  0.41885336  0.35633396    -0.05400
C512        C  0.68761808  0.38711334  0.31942782     0.00600
C513        C  0.63980744  0.38652280  0.30526439    -0.08000
C514        C  0.60940995  0.41134507  0.33387233    -0.05400
C515        C  0.62275604  0.43835621  0.37694813     0.00600
C516        C  0.67317208  0.44622426  0.38361310    -0.07900
C517        C  0.70045503  0.48410075  0.41339317     0.62500
H518        H  0.74068133  0.42242531  0.36408956     0.13200
H519        H  0.57388116  0.40822640  0.32130348     0.13200
C520        C  0.61882783  0.35671281  0.26251830     0.62700
F521        F  0.73491438  0.46467181  0.44190390    -0.22500
F522        F  0.67305498  0.50945777  0.44185133    -0.19800
F523        F  0.72235571  0.51439011  0.38286583    -0.19500
F524        F  0.61591006  0.31046429  0.27597382    -0.19500
F525        F  0.64573271  0.36124050  0.22263222    -0.19800
F526        F  0.57444700  0.36955713  0.24862975    -0.22500
C527        C  0.36407153  0.61986619  0.45727180    -0.05400
C528        C  0.39877806  0.65039880  0.48115307     0.00600
C529        C  0.39207010  0.70007684  0.47524139    -0.08000
C530        C  0.36236892  0.71449850  0.43720049    -0.05400
C531        C  0.32901008  0.68438135  0.41233862     0.00600
C532        C  0.32729516  0.63654941  0.42616770    -0.13300
C533        C  0.28526812  0.60436899  0.41145317     0.62500
H534        H  0.36502798  0.58272698  0.46418595     0.13200
H535        H  0.36312273  0.75156563  0.42936634     0.13200
C536        C  0.40921579  0.74039011  0.51048333     0.62700
F537        F  0.28690594  0.56174594  0.43394496    -0.22500
F538        F  0.28242705  0.59531634  0.36207692    -0.19800
F539        F  0.24525068  0.62574950  0.42491648    -0.19500
F540        F  0.41428775  0.72618358  0.55736228    -0.19500
F541        F  0.37707731  0.77544847  0.51200376    -0.19800
F542        F  0.45035657  0.76051836  0.49547291    -0.22500
C543        C  0.39135650  0.32634341  0.58336873    -0.05400
C544        C  0.42695382  0.35820198  0.60457728     0.00600
C545        C  0.43590317  0.35330802  0.65636350    -0.08000
C546        C  0.40777679  0.32283059  0.68186611    -0.05400
C547        C  0.37446856  0.29241644  0.65950662     0.00600
C548        C  0.36999482  0.29006589  0.60865204    -0.07900
C549        C  0.34759266  0.24720044  0.58064616     0.62500
H550        H  0.38012488  0.32844091  0.54595306     0.13200
H551        H  0.41263358  0.32219224  0.72097115     0.13200
C552        C  0.47259560  0.37617096  0.69056514     0.62700
F553        F  0.35927023  0.24641755  0.53266005    -0.22500
F554        F  0.29974237  0.24650820  0.58174474    -0.19800
F555        F  0.36345471  0.20657468  0.60060598    -0.19500
F556        F  0.49947133  0.40715100  0.66868898    -0.19500
F557        F  0.49997321  0.34207606  0.70999786    -0.19800
F558        F  0.45282262  0.39950455  0.72853095    -0.22500
C559        C  0.85407213  0.35654781  0.05851138    -0.05400
C560        C  0.90322973  0.35872616  0.06467287     0.00600
C561        C  0.92300950  0.32588964  0.09686788    -0.08000
C562        C  0.89360300  0.29831200  0.12513200    -0.05400
C563        C  0.84491435  0.29991845  0.12084414     0.00600
C564        C  0.82515596  0.32533041  0.08301502    -0.07900
C565        C  0.77466958  0.31644024  0.06530156     0.62500
H566        H  0.83868295  0.37650226  0.03031887     0.13200
H567        H  0.90897115  0.27505307  0.15083396     0.13200
C568        C  0.97456202  0.31690265  0.10047981     0.62700
F569        F  0.76701800  0.33191298  0.01926648    -0.22500
F570        F  0.74523365  0.33955358  0.09543260    -0.19800
F571        F  0.76341665  0.26856066  0.06338241    -0.19500
F572        F  0.00088492  0.35541323  0.08687983    -0.19500
F573        F  0.98314739  0.27780740  0.07158255    -0.19800
F574        F  0.98871524  0.30763643  0.14741890    -0.22500
C575        C  0.07582803  0.35276973  0.87889270    -0.05400
C576        C  0.09492454  0.35745808  0.92686925     0.00600
C577        C  0.13328784  0.32799728  0.93788793    -0.08000
C578        C  0.15062341  0.29944603  0.90007098    -0.05400
C579        C  0.13119564  0.29839880  0.85244073     0.00600
C580        C  0.09061827  0.32229593  0.84297032    -0.07900
C581        C  0.06119111  0.31678501  0.79572151     0.62500
H582        H  0.04708971  0.37239576  0.86847084     0.13200
H583        H  0.18101163  0.27911028  0.90740871     0.13200
C584        C  0.15778203  0.32403492  0.98739197     0.62700
F585        F  0.01488731  0.31389180  0.80533072    -0.22500
F586        F  0.06882383  0.27603409  0.76933120    -0.19800
F587        F  0.06931660  0.35524753  0.76778693    -0.19500
F588        F  0.14402192  0.28173693  0.00649205    -0.19500
F589        F  0.14904687  0.36034122  0.01988655    -0.19800
F590        F  0.20547763  0.32420899  0.98270874    -0.22500
C591        C  0.94397624  0.39482250  0.18171480    -0.05400
C592        C  0.92269651  0.42430408  0.14726198     0.00600
C593        C  0.87281650  0.42714236  0.14916437    -0.08000
C594        C  0.84970937  0.40497617  0.18606671    -0.05400
C595        C  0.87030407  0.37279435  0.21645025     0.00600
C596        C  0.91904555  0.36872142  0.21555479    -0.07900
C597        C  0.94502884  0.33766353  0.25004476     0.62500
H598        H  0.98119579  0.39148450  0.18124087     0.13200
H599        H  0.81287542  0.41067002  0.18859496     0.13200
C600        C  0.83888704  0.44946383  0.11432466     0.62700
F601        F  0.99265861  0.34142402  0.24523863    -0.22500
F602        F  0.93089385  0.29097349  0.24115001    -0.19800
F603        F  0.93629751  0.35096348  0.29723105    -0.19500
F604        F  0.85846113  0.46148828  0.07199540    -0.19500
F605        F  0.81927481  0.48700851  0.13730560    -0.19800
F606        F  0.80160936  0.41875134  0.10227754    -0.22500
C607        C  0.16286243  0.58635389  0.18445274    -0.05400
C608        C  0.14315048  0.61897202  0.21669865     0.00600
C609        C  0.09973717  0.60260829  0.23361823    -0.08000
C610        C  0.07456601  0.56415500  0.20718035    -0.05400
C611        C  0.08544247  0.55109803  0.15880132     0.00600
C612        C  0.13451494  0.55065908  0.15734186    -0.07900
C613        C  0.15510855  0.50667951  0.13664997     0.62500
H614        H  0.19997861  0.58719654  0.18324932     0.13200
H615        H  0.04353790  0.54881501  0.22156899     0.13200
C616        C  0.08167408  0.62403398  0.27965981     0.62700
F617        F  0.20289955  0.51154721  0.13504069    -0.22500
F618        F  0.13639387  0.49575398  0.09054670    -0.19800
F619        F  0.14451854  0.46955489  0.16565782    -0.19500
F620        F  0.07309177  0.67096070  0.27349264    -0.19500
F621        F  0.11453389  0.62083795  0.31722102    -0.19800
F622        F  0.04093806  0.60116989  0.29237027    -0.22500
C623        C  0.12605957  0.43970833  0.82151599    -0.05400
C624        C  0.12320774  0.44448166  0.87206413     0.00600
C625        C  0.16358813  0.43089396  0.90040353    -0.08000
C626        C  0.19659325  0.40203826  0.87771012    -0.05400
C627        C  0.19476855  0.39263599  0.82740979     0.00600
C628        C  0.16277037  0.41873961  0.79895910    -0.07900
C629        C  0.16749274  0.42823534  0.74526513     0.62500
H630        H  0.10010973  0.45530409  0.79856069     0.13200
H631        H  0.22446872  0.38752537  0.89923960     0.13200
C632        C  0.17696249  0.44968200  0.95154820     0.62700
F633        F  0.14146579  0.46563868  0.73087037    -0.22500
F634        F  0.15222607  0.38915134  0.71675774    -0.19800
F635        F  0.21331628  0.44036236  0.73654610    -0.19500
F636        F  0.19720860  0.41574556  0.97831283    -0.19500
F637        F  0.13950823  0.46609291  0.97552905    -0.19800
F638        F  0.21074328  0.48543593  0.94990512    -0.22500
C639        C  0.14859206  0.60906109  0.06645998    -0.05400
C640        C  0.11570364  0.63958528  0.04553661     0.00600
C641        C  0.12379224  0.68878027  0.05585256    -0.08000
C642        C  0.15454513  0.70243598  0.09443127    -0.05400
C643        C  0.18886880  0.67260524  0.11263691     0.00600
C644        C  0.18987570  0.62705651  0.09169278    -0.07900
C645        C  0.23575342  0.60304686  0.08628501     0.62500
H646        H  0.14404866  0.57171458  0.05905108     0.13200
H647        H  0.15388310  0.73893494  0.10709918     0.13200
C648        C  0.10545936  0.72905204  0.02670301     0.62700
F649        F  0.22973943  0.56180400  0.05812438    -0.22500
F650        F  0.25669951  0.59277023  0.13012681    -0.19800
F651        F  0.26594666  0.63302855  0.06343944    -0.19500
F652        F  0.06967893  0.74966889  0.05033569    -0.19500
F653        F  0.09098444  0.71541201  0.98005446    -0.19800
F654        F  0.14078297  0.76302251  0.02257044    -0.22500
C655        C  0.35442755  0.86809899  0.06867381    -0.05400
C656        C  0.35847312  0.91689331  0.08085543     0.00600
C657        C  0.33034354  0.93223918  0.11984898    -0.08000
C658        C  0.30172850  0.89903391  0.14394888    -0.05400
C659        C  0.29992312  0.85034164  0.13197797     0.00600
C660        C  0.32520585  0.83518344  0.09129744    -0.07900
C661        C  0.32062706  0.78447806  0.06967877     0.62500
H662        H  0.37502266  0.85479824  0.04079925     0.13200
H663        H  0.28176367  0.91128181  0.17384784     0.13200
C664        C  0.32864367  0.98343794  0.13726081     0.62700
F665        F  0.33861238  0.78050241  0.02438620    -0.22500
F666        F  0.27429514  0.76958738  0.06531792    -0.19800
F667        F  0.34431024  0.75361665  0.09791547    -0.19500
F668        F  0.28682639  0.00108100  0.12139914    -0.19500
F669        F  0.36490908  0.01106467  0.12112388    -0.19800
F670        F  0.33115974  0.98701075  0.18718876    -0.22500
C671        C  0.43145092  0.89989715  0.15405429    -0.05400
C672        C  0.44797189  0.87039174  0.11617673     0.00600
C673        C  0.44132249  0.81997493  0.12238947    -0.08000
C674        C  0.41319318  0.80398634  0.15928737    -0.05400
C675        C  0.39342184  0.83301766  0.19429764     0.00600
C676        C  0.40629324  0.88192123  0.19383675    -0.07900
C677        C  0.39666343  0.91429038  0.23652529     0.62500
H678        H  0.43779746  0.93752619  0.15185165     0.13200
H679        H  0.40712053  0.76627302  0.16082907     0.13200
C680        C  0.46323971  0.77854038  0.09540969     0.62700
F681        F  0.41376158  0.95979662  0.23050120    -0.22500
F682        F  0.41819913  0.89781372  0.27780852    -0.19800
F683        F  0.34949032  0.91563068  0.24293397    -0.19500
F684        F  0.48033223  0.74761180  0.12874620    -0.19500
F685        F  0.49997070  0.78958198  0.06788554    -0.19800
F686        F  0.42964426  0.75443881  0.06592645    -0.22500
C687        C  0.41844919  0.12217094  0.84544133    -0.05400
C688        C  0.41751473  0.12330654  0.89649608     0.00600
C689        C  0.38684075  0.15494963  0.91887306    -0.08000
C690        C  0.35895375  0.18328906  0.88956405    -0.05400
C691        C  0.36517333  0.18527227  0.83964376     0.00600
C692        C  0.40038267  0.15867117  0.81926163    -0.07900
C693        C  0.42611517  0.17290549  0.77486181     0.62500
H694        H  0.44344953  0.10040981  0.82840193     0.13200
H695        H  0.33346041  0.20506642  0.90600736     0.13200
C696        C  0.38632894  0.16337231  0.97314626     0.62700
F697        F  0.47358426  0.17250083  0.78494949    -0.22500
F698        F  0.41712458  0.21810181  0.76167140    -0.19800
F699        F  0.41465165  0.14168309  0.73642005    -0.19500
F700        F  0.40775174  0.20675642  0.98564874    -0.19500
F701        F  0.40892742  0.12888066  0.99778476    -0.19800
F702        F  0.34103936  0.16388554  0.98760316    -0.22500
C703        C  0.35010373  0.05058590  0.82861575    -0.05400
C704        C  0.34774834  0.05050792  0.87964508     0.00600
C705        C  0.30957437  0.07441143  0.89939152    -0.08000
C706        C  0.28108172  0.10196147  0.86914454    -0.05400
C707        C  0.28521494  0.10229818  0.81853765     0.00600
C708        C  0.31769393  0.07244756  0.79782029    -0.07900
C709        C  0.31685709  0.06225762  0.74335619     0.62500
H710        H  0.37924096  0.03525651  0.81306045     0.13200
H711        H  0.25423700  0.12239612  0.88488078     0.13200
C712        C  0.29610482  0.06772703  0.95119533     0.62700
F713        F  0.34328288  0.02535036  0.73101586    -0.22500
F714        F  0.33362302  0.10080409  0.71966213    -0.19800
F715        F  0.27196741  0.04981009  0.72636773    -0.19500
F716        F  0.33513652  0.06833716  0.98203681    -0.19500
F717        F  0.27204799  0.02500322  0.95406020    -0.19800
F718        F  0.26764606  0.10272048  0.96701016    -0.22500
C719        C  0.57346028  0.16672708  0.13349934    -0.05400
C720        C  0.58232872  0.15102593  0.08590834     0.00600
C721        C  0.62091951  0.17630211  0.06697368    -0.08000
C722        C  0.66090000  0.17962410  0.09760485    -0.05400
C723        C  0.65480199  0.19624027  0.14526253     0.00600
C724        C  0.60806513  0.19375268  0.16198612    -0.07900
C725        C  0.59315136  0.22236214  0.20522475     0.62500
H726        H  0.54004828  0.15793368  0.14790700     0.13200
H727        H  0.69415804  0.18675180  0.08206442     0.13200
C728        C  0.61344990  0.22635909  0.04920893     0.62700
F729        F  0.54663959  0.21393214  0.21388737    -0.22500
F730        F  0.59913739  0.26933235  0.19524331    -0.19800
F731        F  0.61888541  0.21243942  0.24655439    -0.19500
F732        F  0.56896044  0.23157616  0.03157276    -0.19500
F733        F  0.64480214  0.23696238  0.01447243    -0.19800
F734        F  0.62042353  0.26077341  0.08600332    -0.22500
C735        C  0.61704605  0.07642514  0.14482977    -0.05400
C736        C  0.64181203  0.06202567  0.10371845     0.00600
C737        C  0.69206773  0.06781399  0.11000200    -0.08000
C738        C  0.71194560  0.09446890  0.15046087    -0.05400
C739        C  0.68735417  0.10821880  0.19109043     0.00600
C740        C  0.63911539  0.09451710  0.18958859    -0.07900
C741        C  0.61018251  0.09329299  0.23412179     0.62500
H742        H  0.57958779  0.07087185  0.14318073     0.13200
H743        H  0.74878438  0.10368287  0.15064214     0.13200
C744        C  0.72790055  0.04230613  0.08054669     0.62700
F745        F  0.59392712  0.04753831  0.23982539    -0.22500
F746        F  0.57221734  0.12098878  0.22859895    -0.19800
F747        F  0.63504371  0.10773018  0.27613144    -0.19500
F748        F  0.74000241  0.06787978  0.04165905    -0.19500
F749        F  0.71239345  0.99788096  0.06519135    -0.19800
F750        F  0.76850764  0.03624584  0.10802753    -0.22500
C751        C  0.83441508  0.88785458  0.29556864    -0.05400
C752        C  0.79792177  0.86335378  0.31648092     0.00600
C753        C  0.79011402  0.87390792  0.36596201    -0.08000
C754        C  0.82338159  0.90352510  0.39351451    -0.05400
C755        C  0.85983221  0.92907942  0.37189774     0.00600
C756        C  0.86157930  0.92315824  0.32034977    -0.07900
C757        C  0.88432652  0.95879817  0.28915868     0.62500
H758        H  0.83998095  0.88169591  0.25756508     0.13200
H759        H  0.81796307  0.91138904  0.43137128     0.13200
C760        C  0.74465737  0.85956167  0.38800099     0.62700
F761        F  0.88837620  0.94328040  0.24158779    -0.22500
F762        F  0.92785537  0.97020155  0.30893790    -0.19800
F763        F  0.85713069  0.99731561  0.28668996    -0.19500
F764        F  0.74130276  0.81159849  0.39288845    -0.19500
F765        F  0.70779505  0.87287727  0.35855256    -0.19800
F766        F  0.74064135  0.88102933  0.43327705    -0.22500
C767        C  0.66082615  0.89691096  0.15077396    -0.05400
C768        C  0.69202247  0.86833595  0.12770965     0.00600
C769        C  0.70140802  0.87778224  0.07937428    -0.08000
C770        C  0.67115122  0.90711658  0.05354584    -0.05400
C771        C  0.63740641  0.93550126  0.07601268     0.00600
C772        C  0.63621175  0.93202392  0.12789655    -0.07900
C773        C  0.62157780  0.96965868  0.16319997     0.62500
H774        H  0.65780677  0.89370148  0.18922375     0.13200
H775        H  0.67485119  0.90748760  0.01509403     0.13200
C776        C  0.74560213  0.86196841  0.05667847     0.62700
F777        F  0.61360234  0.95466081  0.20892723    -0.22500
F778        F  0.58143432  0.98959923  0.14749836    -0.19800
F779        F  0.65917172  0.00053273  0.17054369    -0.19500
F780        F  0.75292255  0.88393148  0.01371798    -0.19500
F781        F  0.74389025  0.81410001  0.04703730    -0.19800
F782        F  0.78341437  0.87362805  0.08800691    -0.22500
C783        C  0.91519615  0.68689663  0.16322004    -0.05400
C784        C  0.87740632  0.68972740  0.13194135     0.00600
C785        C  0.88106568  0.67245070  0.08359519    -0.08000
C786        C  0.91954059  0.64400243  0.07221772    -0.05400
C787        C  0.95340083  0.63187633  0.10802733     0.00600
C788        C  0.94990317  0.65593337  0.15529501    -0.07900
C789        C  0.98376936  0.65693271  0.19860972     0.62500
H790        H  0.91546991  0.70727464  0.19732549     0.13200
H791        H  0.92418485  0.63233645  0.03512706     0.13200
C792        C  0.84850083  0.68886348  0.04401298     0.62700
F793        F  0.96105514  0.65718660  0.24175998    -0.22500
F794        F  0.01318162  0.69665301  0.19889143    -0.19800
F795        F  0.00838843  0.61826754  0.19792347    -0.19500
F796        F  0.85473481  0.73714280  0.04098801    -0.19500
F797        F  0.80284695  0.67858642  0.05404176    -0.19800
F798        F  0.85717176  0.66796323  0.99952585    -0.22500
C799        C  0.90778924  0.81175544  0.30259245    -0.05400
C800        C  0.87201100  0.78325273  0.31920848     0.00600
C801        C  0.86574557  0.78409194  0.36954997    -0.08000
C802        C  0.88769173  0.82094490  0.39888727    -0.05400
C803        C  0.92265280  0.85281135  0.38275944     0.00600
C804        C  0.93292478  0.84657192  0.33197275    -0.07900
C805        C  0.96721870  0.87387807  0.30274818     0.62500
H806        H  0.91486225  0.80823365  0.26448186     0.13200
H807        H  0.87743600  0.82438774  0.43586090     0.13200
C808        C  0.84026837  0.74394752  0.39346801     0.62700
F809        F  0.94624589  0.88759952  0.26027720    -0.22500
F810        F  0.00104317  0.84402124  0.28841642    -0.19800
F811        F  0.98605685  0.91368989  0.32655297    -0.19500
F812        F  0.85673500  0.70148188  0.37691912    -0.19500
F813        F  0.79305008  0.74409971  0.38327093    -0.19800
F814        F  0.84755574  0.74674461  0.44328192    -0.22500
C815        C  0.67903778  0.61108736  0.36245659    -0.05400
C816        C  0.68276350  0.59743997  0.31353175     0.00600
C817        C  0.66182350  0.55377478  0.29697879    -0.08000
C818        C  0.62863151  0.53200187  0.32507826    -0.05400
C819        C  0.61982182  0.54736814  0.37301087     0.00600
C820        C  0.65031699  0.58558299  0.39359813    -0.07900
C821        C  0.65640521  0.60117332  0.44701235     0.62500
H822        H  0.69825744  0.64259381  0.37652728     0.13200
H823        H  0.60973267  0.50168858  0.30858449     0.13200
C824        C  0.67506638  0.52872626  0.25041032     0.62700
F825        F  0.65001185  0.64881407  0.45310514    -0.22500
F826        F  0.70166985  0.59392851  0.46305437    -0.19800
F827        F  0.62685878  0.57704882  0.47618427    -0.19500
F828        F  0.72225000  0.53543622  0.24406089    -0.19500
F829        F  0.65007069  0.54550304  0.21141138    -0.19800
F830        F  0.66584923  0.48062525  0.25166937    -0.22500
C831        C  0.84272951  0.59078387  0.17921035    -0.05400
C832        C  0.80868244  0.59898645  0.14266805     0.00600
C833        C  0.81589371  0.57957254  0.09554605    -0.08000
C834        C  0.85914992  0.55780943  0.08725131    -0.05400
C835        C  0.89115710  0.54743523  0.12582506     0.00600
C836        C  0.87802838  0.55979778  0.17380387    -0.07900
C837        C  0.89328813  0.53829940  0.22180801     0.62500
H838        H  0.83972821  0.60519829  0.21566903     0.13200
H839        H  0.86695617  0.54663974  0.05078643     0.13200
C840        C  0.77783054  0.57457056  0.05585068     0.62700
F841        F  0.92339961  0.56953057  0.24819079    -0.22500
F842        F  0.91330100  0.49553717  0.21694824    -0.19800
F843        F  0.85479302  0.52996907  0.24913927    -0.19500
F844        F  0.74286126  0.60565138  0.06185891    -0.19500
F845        F  0.75813928  0.52943276  0.05573716    -0.19800
F846        F  0.79617098  0.58188811  0.01128498    -0.22500
C847        C  0.57733660  0.80681334  0.14475474    -0.05400
C848        C  0.60966166  0.78163725  0.11908066     0.00600
C849        C  0.61534947  0.79219980  0.07040947    -0.08000
C850        C  0.59419807  0.83264219  0.05251477    -0.05400
C851        C  0.56465281  0.86184152  0.07997930     0.00600
C852        C  0.55900903  0.84882509  0.12934287    -0.07900
C853        C  0.54064314  0.87704715  0.17153354     0.62500
H854        H  0.56979583  0.79619379  0.18093621     0.13200
H855        H  0.59971974  0.84130454  0.01543145     0.13200
C856        C  0.63828257  0.75835903  0.03599835     0.62700
F857        F  0.57460195  0.88135186  0.20818712    -0.22500
F858        F  0.50490769  0.85237550  0.19199082    -0.19800
F859        F  0.52726316  0.92110909  0.15955006    -0.19500
F860        F  0.61353496  0.71559284  0.03405098    -0.19500
F861        F  0.68346270  0.75105255  0.05113441    -0.19800
F862        F  0.63889048  0.77479714  0.98959235    -0.22500
C863        C  0.58267588  0.67659990  0.38507105    -0.05400
C864        C  0.56134676  0.62994032  0.37800002     0.00600
C865        C  0.55347349  0.61612680  0.32676491    -0.08000
C866        C  0.57937557  0.63969158  0.29214536    -0.05400
C867        C  0.60337196  0.68237453  0.30308332     0.00600
C868        C  0.59848803  0.70413608  0.34831097    -0.07900
C869        C  0.60898227  0.75647714  0.35894866     0.62500
H870        H  0.58568213  0.69512954  0.41951374     0.13200
H871        H  0.57910449  0.62563004  0.25514543     0.13200
C872        C  0.51581306  0.58418254  0.30178409     0.62700
F873        F  0.57701945  0.77433632  0.38999844    -0.22500
F874        F  0.60583363  0.78183812  0.31727891    -0.19800
F875        F  0.65303319  0.76321474  0.38051002    -0.19500
F876        F  0.48637177  0.61105561  0.27448793    -0.19500
F877        F  0.48958029  0.56038099  0.33299928    -0.19800
F878        F  0.53501750  0.55254839  0.26981516    -0.22500
C879        C  0.93002217  0.27568585  0.86030939    -0.05400
C880        C  0.90744977  0.30392545  0.82646971     0.00600
C881        C  0.92645812  0.35066414  0.82313402    -0.08000
C882        C  0.95491814  0.37050109  0.86272137    -0.05400
C883        C  0.97455299  0.34255260  0.89908338     0.00600
C884        C  0.96673250  0.29253897  0.89200285    -0.07900
C885        C  0.99622611  0.25414670  0.91315205     0.62500
H886        H  0.92069842  0.23841058  0.86082333     0.13200
H887        H  0.96207062  0.40802870  0.86481405     0.13200
C888        C  0.92607577  0.37741702  0.77677796     0.62700
F889        F  0.97358268  0.23366142  0.95057339    -0.22500
F890        F  0.04028412  0.26998830  0.92889510    -0.19800
F891        F  0.00236524  0.21933381  0.87785774    -0.19500
F892        F  0.90928112  0.42157018  0.78441648    -0.19500
F893        F  0.90068754  0.35414974  0.73912177    -0.19800
F894        F  0.97120948  0.38337199  0.76241392    -0.22500
C895        C  0.91723858  0.12816410  0.72196162    -0.05400
C896        C  0.86938963  0.11830638  0.72828727     0.00600
C897        C  0.85315913  0.07249706  0.71020482    -0.08000
C898        C  0.88066177  0.04754080  0.67502775    -0.05400
C899        C  0.92750590  0.06226572  0.66556162     0.00600
C900        C  0.94542972  0.09095066  0.70643913    -0.07900
C901        C  0.96202542  0.06338200  0.74975436     0.62500
H902        H  0.93372107  0.15955203  0.73963553     0.13200
H903        H  0.86711919  0.01552602  0.65686579     0.13200
C904        C  0.81342596  0.04766624  0.73426541     0.62700
F905        F  0.92584465  0.03711174  0.76805486    -0.22500
F906        F  0.98047289  0.09336434  0.78698452    -0.19800
F907        F  0.99503929  0.03262886  0.73628581    -0.19500
F908        F  0.77349771  0.07266515  0.73115843    -0.19500
F909        F  0.82564607  0.04361686  0.78273990    -0.19800
F910        F  0.80419483  0.00285137  0.71424738    -0.22500
C911        C  0.63085350  0.21406286  0.90462373    -0.05400
C912        C  0.67244731  0.19033664  0.90784098     0.00600
C913        C  0.67550233  0.15555194  0.94242249    -0.08000
C914        C  0.63436482  0.14012255  0.96508888    -0.05400
C915        C  0.59047076  0.16094415  0.95984606     0.00600
C916        C  0.59176458  0.20408982  0.93233330    -0.07900
C917        C  0.55837409  0.24496269  0.92865785     0.62500
H918        H  0.62967398  0.24376755  0.88119585     0.13200
H919        H  0.63758774  0.11425908  0.99143397     0.13200
C920        C  0.72156809  0.13720452  0.96023653     0.62700
F921        F  0.54259107  0.24855029  0.88102102    -0.22500
F922        F  0.58294132  0.28659217  0.94245526    -0.19800
F923        F  0.52055227  0.24382206  0.95625105    -0.19500
F924        F  0.72734429  0.14782817  0.00922009    -0.19500
F925        F  0.75959196  0.15709317  0.93879301    -0.19800
F926        F  0.72146786  0.08903969  0.95178865    -0.22500
C927        C  0.79203995  0.37429778  0.92413995    -0.05400
C928        C  0.80059316  0.36478579  0.87513212     0.00600
C929        C  0.82626912  0.40191084  0.85347079    -0.08000
C930        C  0.85911468  0.43086622  0.88317130    -0.05400
C931        C  0.85986977  0.42986760  0.93430128     0.00600
C932        C  0.81568056  0.41337818  0.94987363    -0.07900
C933        C  0.78657000  0.44671735  0.97764477     0.62500
H934        H  0.76186554  0.35710037  0.93857971     0.13200
H935        H  0.88470718  0.45328137  0.86677614     0.13200
C936        C  0.81028062  0.41859433  0.80470508     0.62700
F937        F  0.75060235  0.46094289  0.94752799    -0.22500
F938        F  0.81295213  0.48620847  0.99400955    -0.19800
F939        F  0.76764565  0.42506317  0.01627812    -0.19500
F940        F  0.76321240  0.42619008  0.80546034    -0.19500
F941        F  0.81818005  0.38559876  0.76877788    -0.19800
F942        F  0.83233699  0.46091312  0.79425758    -0.22500
C943        C  0.58305138  0.11251039  0.78701810    -0.05400
C944        C  0.62586911  0.12705277  0.81033292     0.00600
C945        C  0.64187880  0.09478511  0.84532775    -0.08000
C946        C  0.60793429  0.07203388  0.87361214    -0.05400
C947        C  0.56078173  0.06819076  0.85762692     0.00600
C948        C  0.55396631  0.07778393  0.80776286    -0.07900
C949        C  0.51551813  0.05307091  0.77791897     0.62500
H950        H  0.57316428  0.12654155  0.75238530     0.13200
H951        H  0.61839171  0.05520384  0.90656541     0.13200
C952        C  0.68733895  0.07028479  0.83923200     0.62700
F953        F  0.53443479  0.02444979  0.74308026    -0.22500
F954        F  0.48853557  0.08541312  0.75529263    -0.19800
F955        F  0.48841080  0.02560058  0.80680301    -0.19500
F956        F  0.72520831  0.09795329  0.85545886    -0.19500
F957        F  0.69191539  0.05840420  0.79080368    -0.19800
F958        F  0.68812386  0.02902781  0.86427433    -0.22500
C959        C  0.57432333  0.27866023  0.65765039    -0.05400
C960        C  0.60490769  0.30578920  0.68942445     0.00600
C961        C  0.59939193  0.35526121  0.68982095    -0.08000
C962        C  0.57500465  0.37499292  0.65012737    -0.05400
C963        C  0.54575710  0.34832082  0.61534474     0.00600
C964        C  0.54168723  0.29828731  0.62470297    -0.07900
C965        C  0.50430711  0.26158229  0.60569549     0.62500
H966        H  0.57439223  0.24065748  0.65984807     0.13200
H967        H  0.57650296  0.41305810  0.64827758     0.13200
C968        C  0.61216667  0.38825269  0.73335780     0.62700
F969        F  0.52432359  0.22521860  0.58060992    -0.22500
F970        F  0.46980664  0.27769506  0.57635073    -0.19800
F971        F  0.48297939  0.24279241  0.64488722    -0.19500
F972        F  0.64792022  0.41943708  0.72328056    -0.19500
F973        F  0.62437851  0.36464099  0.77435086    -0.19800
F974        F  0.57405514  0.41416938  0.74424154    -0.22500
C975        C  0.67991830  0.31092972  0.59538552    -0.05400
C976        C  0.70815767  0.32814459  0.63443744     0.00600
C977        C  0.70767860  0.37688262  0.64612450    -0.08000
C978        C  0.67443770  0.40455161  0.62253679    -0.05400
C979        C  0.64283802  0.38801188  0.58371191     0.00600
C980        C  0.64691552  0.33785549  0.57097641    -0.07900
C981        C  0.61805056  0.30628333  0.53562197     0.62500
H982        H  0.68203407  0.27385459  0.58501455     0.13200
H983        H  0.67126247  0.43973657  0.63745037     0.13200
C984        C  0.74096425  0.39986556  0.68455262     0.62700
F985        F  0.64510747  0.28674274  0.50099734    -0.22500
F986        F  0.58414807  0.33000535  0.51469168    -0.19800
F987        F  0.59843508  0.26864484  0.55811386    -0.19500
F988        F  0.78622510  0.39184455  0.67278521    -0.19500
F989        F  0.73198531  0.38100015  0.72844578    -0.19800
F990        F  0.73663202  0.44816181  0.68906695    -0.22500
C991        C  0.83774010  0.10834093  0.56360068    -0.05400
C992        C  0.83422426  0.06004890  0.57414544     0.00600
C993        C  0.79503462  0.04745325  0.60263819    -0.08000
C994        C  0.77279409  0.08418388  0.62795031    -0.05400
C995        C  0.78584611  0.13199998  0.62375575     0.00600
C996        C  0.81273824  0.14372030  0.58522261    -0.07900
C997        C  0.81681397  0.19333848  0.56717631     0.62500
H998        H  0.86412131  0.12067474  0.54136580     0.13200
H999        H  0.74453547  0.07595687  0.65093019     0.13200
C1000       C  0.77394303  0.99761052  0.60573978     0.62700
F1001       F  0.82775493  0.19214502  0.51958726    -0.22500
F1002       F  0.85120927  0.21943851  0.59389861    -0.19800
F1003       F  0.77483095  0.21526118  0.56908731    -0.19500
F1004       F  0.80726827  0.96633482  0.61902683    -0.19500
F1005       F  0.75254472  0.98336989  0.56162594    -0.19800
F1006       F  0.73990461  0.99523218  0.63945534    -0.22500
C1007       C  0.37326733  0.80722664  0.88526057    -0.05400
C1008       C  0.32591550  0.79635683  0.88698694     0.00600
C1009       C  0.30276660  0.81399973  0.92793516    -0.08000
C1010       C  0.32492993  0.84915640  0.95816227    -0.05400
C1011       C  0.37014384  0.86824494  0.95181846     0.00600
C1012       C  0.39642527  0.84224357  0.91681074    -0.07900
C1013       C  0.44860983  0.84198785  0.91629398     0.62500
H1014       H  0.39208639  0.78855656  0.85829740     0.13200
H1015       H  0.30476722  0.86383473  0.98655226     0.13200
C1016       C  0.25366365  0.79756121  0.94010995     0.62700
F1017       F  0.46417859  0.82795480  0.87195724    -0.22500
F1018       F  0.46298253  0.80734496  0.94624824    -0.19800
F1019       F  0.46860122  0.88586495  0.92884163    -0.19500
F1020       F  0.24855872  0.74939769  0.93261066    -0.19500
F1021       F  0.22038159  0.81972440  0.91270786    -0.19800
F1022       F  0.24486666  0.80775578  0.98794464    -0.22500
C1023       C  0.07582534  0.66044113  0.88136097    -0.05400
C1024       C  0.09611772  0.63172582  0.91730400     0.00600
C1025       C  0.14618255  0.63839912  0.92546812    -0.08000
C1026       C  0.17005274  0.67204188  0.89949427    -0.05400
C1027       C  0.14894991  0.70043039  0.86572939     0.00600
C1028       C  0.10040080  0.69653451  0.85837792    -0.07900
C1029       C  0.07426447  0.73110275  0.82806589     0.62500
H1030       H  0.03940729  0.65495193  0.87109199     0.13200
H1031       H  0.20731288  0.67627042  0.90615896     0.13200
C1032       C  0.17886342  0.61713439  0.96250713     0.62700
F1033       F  0.02655984  0.72383607  0.82961689    -0.22500
F1034       F  0.08635873  0.72688649  0.78040571    -0.19800
F1035       F  0.08516965  0.77654049  0.84581944    -0.19500
F1036       F  0.16004226  0.57704066  0.98066686    -0.19500
F1037       F  0.19154456  0.65199470  0.99691889    -0.19800
F1038       F  0.22095846  0.60493353  0.94497501    -0.22500
C1039       C  0.10094241  0.88364203  0.69225699    -0.05400
C1040       C  0.14932471  0.88946964  0.68531308     0.00600
C1041       C  0.16507327  0.92957567  0.66148953    -0.08000
C1042       C  0.13198434  0.95853791  0.64122998    -0.05400
C1043       C  0.08354695  0.94950667  0.64079554     0.00600
C1044       C  0.06800616  0.91433717  0.67214492    -0.07900
C1045       C  0.01944638  0.91418284  0.69141301     0.62500
H1046       H  0.08898561  0.85567505  0.71469619     0.13200
H1047       H  0.14412925  0.99047239  0.62718530     0.13200
C1048       C  0.21650426  0.94398952  0.65961930     0.62700
F1049       F  0.00677455  0.87092331  0.70930180    -0.22500
F1050       F  0.98668963  0.92488075  0.65584651    -0.19800
F1051       F  0.01888374  0.94718286  0.72910901    -0.19500
F1052       F  0.23840235  0.91307359  0.62955377    -0.19500
F1053       F  0.23740585  0.94509875  0.70563696    -0.19800
F1054       F  0.22358183  0.98792252  0.64164384    -0.22500
C1055       C  0.35289261  0.93369366  0.77617257    -0.05400
C1056       C  0.35245356  0.88420956  0.77733799     0.00600
C1057       C  0.39766140  0.86539441  0.78729906    -0.08000
C1058       C  0.43251560  0.89524768  0.81394545    -0.05400
C1059       C  0.42447305  0.94302365  0.82544245     0.00600
C1060       C  0.39648681  0.95898033  0.78561129    -0.07900
C1061       C  0.42199858  0.97024284  0.73961523     0.62500
H1062       H  0.32387802  0.94972415  0.75814173     0.13200
H1063       H  0.46808761  0.88512667  0.81832148     0.13200
C1064       C  0.41235273  0.82049190  0.76178235     0.62700
F1065       F  0.39813029  0.95125438  0.69831894    -0.22500
F1066       F  0.46594482  0.95208944  0.74053091    -0.19800
F1067       F  0.42685126  0.01819948  0.73507973    -0.19500
F1068       F  0.40912043  0.82597953  0.71234329    -0.19500
F1069       F  0.38455306  0.78222447  0.77257441    -0.19800
F1070       F  0.45788961  0.81072208  0.77432204    -0.22500
C1071       C  0.37390093  0.68853852  0.65487453    -0.05400
C1072       C  0.33028055  0.68153648  0.63002164     0.00600
C1073       C  0.32592936  0.65018259  0.58967956    -0.08000
C1074       C  0.36464983  0.62388454  0.57827472    -0.05400
C1075       C  0.40949030  0.63196120  0.60131499     0.00600
C1076       C  0.41372684  0.66551283  0.64142579    -0.07900
C1077       C  0.45844311  0.67919944  0.67126847     0.62500
H1078       H  0.37716961  0.71335864  0.68557368     0.13200
H1079       H  0.36029161  0.59730352  0.54955741     0.13200
C1080       C  0.28233193  0.64735790  0.55647071     0.62700
F1081       F  0.44918564  0.69424916  0.71783917    -0.22500
F1082       F  0.48150609  0.71619062  0.65019187    -0.19800
F1083       F  0.48713206  0.64179323  0.67591417    -0.19500
F1084       F  0.27512648  0.69111896  0.53819426    -0.19500
F1085       F  0.24377757  0.63265422  0.58067754    -0.19800
F1086       F  0.28626859  0.61588572  0.51800637    -0.22500
C1087       C  0.10217340  0.80744477  0.60186135    -0.05400
C1088       C  0.15041332  0.80133837  0.60041215     0.00600
C1089       C  0.17548281  0.82816095  0.56676259    -0.08000
C1090       C  0.15400821  0.86556730  0.54508694    -0.05400
C1091       C  0.10715488  0.87691649  0.55083223     0.00600
C1092       C  0.07963557  0.84369510  0.57644725    -0.07900
C1093       C  0.02717909  0.84335216  0.57807360     0.62500
H1094       H  0.08207760  0.78475998  0.62441548     0.13200
H1095       H  0.17524574  0.88724562  0.52290142     0.13200
C1096       C  0.22519805  0.81864009  0.55234289     0.62700
F1097       F  0.01369121  0.83764208  0.62449893    -0.22500
F1098       F  0.00815560  0.80480836  0.55120920    -0.19800
F1099       F  0.00900127  0.88419417  0.56135822    -0.19500
F1100       F  0.22930011  0.77094542  0.54288180    -0.19500
F1101       F  0.25746432  0.83410498  0.58844168    -0.19800
F1102       F  0.23698816  0.84150081  0.51105405    -0.22500
C1103       C  0.30811699  0.57519464  0.68113831    -0.05400
C1104       C  0.32157278  0.60281071  0.72323401     0.00600
C1105       C  0.36935873  0.60508485  0.73675300    -0.08000
C1106       C  0.40143358  0.58359595  0.70607973    -0.05400
C1107       C  0.38990455  0.55728476  0.66141191     0.00600
C1108       C  0.34006678  0.55262211  0.65027339    -0.07900
C1109       C  0.31618099  0.52639083  0.60668943     0.62500
H1110       H  0.27130764  0.57281691  0.67083654     0.13200
H1111       H  0.43695326  0.58873127  0.71826653     0.13200
C1112       C  0.38712578  0.63165580  0.78309195     0.62700
F1113       F  0.28442251  0.55395573  0.58422916    -0.22500
F1114       F  0.29071213  0.48840517  0.62244470    -0.19800
F1115       F  0.34621256  0.51250215  0.57221549    -0.19500
F1116       F  0.36609317  0.61252515  0.82220181    -0.19500
F1117       F  0.37703556  0.67868799  0.78084072    -0.19800
F1118       F  0.43472637  0.62915311  0.79109771    -0.22500
C1119       C  0.06054960  0.58249523  0.80298568    -0.05400
C1120       C  0.08567898  0.55649668  0.83833629     0.00600
C1121       C  0.13482597  0.55489957  0.82880473    -0.08000
C1122       C  0.15360809  0.57487554  0.78743763    -0.05400
C1123       C  0.13044186  0.60630779  0.75906738     0.00600
C1124       C  0.08160304  0.60798472  0.76504855    -0.07900
C1125       C  0.04931591  0.63207471  0.73015090     0.62500
H1126       H  0.02339271  0.58500627  0.80614618     0.13200
H1127       H  0.19037918  0.57142426  0.78124036     0.13200
C1128       C  0.17316630  0.54148776  0.86256724     0.62700
F1129       F  0.01929629  0.65957754  0.75529412    -0.22500
F1130       F  0.02311785  0.59794995  0.70298212    -0.19800
F1131       F  0.07290094  0.66019777  0.69901545    -0.19500
F1132       F  0.19629998  0.50386268  0.84422780    -0.19500
F1133       F  0.15632853  0.53275709  0.90640723    -0.19800
F1134       F  0.20603912  0.57808357  0.86677341    -0.22500
loop_ 
_geom_bond_atom_site_label_1 
_geom_bond_atom_site_label_2 
_geom_bond_distance 
_geom_bond_site_symmetry_2 
_ccdc_geom_bond_type 
O1            C9   1.283       .  A
O1          Co21   1.938       .  S
O2           C10   1.248       .  A
O2          Co22   1.944       .  S
O3           C11   1.289       .  A
O3          Co23   2.055       .  S
O4           C12   1.253       .  A
O4          Co24   1.934       .  S
O5           C11   1.256       .  A
O5          Co22   1.909       .  S
O6           C12   1.289       .  A
O6          Co21   2.044       .  S
O7           C10   1.296       .  A
O7          Co24   2.110       .  S
O8            C9   1.293       .  A
O8          Co23   2.140       .  S
C9         C1104   1.530       .  S
C10        C1056   1.525       .  S
C11        C1072   1.482       .  S
C12        C1008   1.499       .  S
O13          C26   1.272       .  A
O13         Co21   1.967       .  S
O14          C27   1.251       .  A
O14         Co22   1.972       .  S
O15          C28   1.283       .  A
O15         Co23   1.952       .  S
O16          C29   1.256       .  A
O16         Co24   1.959       .  S
O17          C29   1.278       .  A
O17         Co22   2.029       .  S
O18          C28   1.301       .  A
O18         Co21   2.156       .  S
O19          C26   1.278       .  A
O19         Co24   2.009       .  S
O20          C27   1.276       .  A
O20         Co23   2.047       .  S
Co21         O25   1.972       .  S
Co22         O25   2.005       .  S
Co23         O25   2.011       .  S
Co24         O25   2.023       .  S
C26        C1027   1.488       .  S
C27        C1088   1.512       .  S
C28        C1123   1.533       .  S
C29        C1040   1.498       .  S
O30          C38   1.272       .  A
O30         Co50   1.971       .  S
O31          C39   1.281       .  A
O31         Co51   2.007       .  S
O32          C40   1.266       .  A
O32         Co52   2.045       .  S
O33          C41   1.255       .  A
O33         Co53   1.982       .  S
O34          C40   1.260       .  A
O34         Co51   2.009       .  S
O35          C41   1.268       .  A
O35         Co50   2.037       .  S
O36          C39   1.306       .  A
O36         Co53   2.126       .  S
O37          C38   1.289       .  A
O37         Co52   2.057       .  S
C38         C976   1.509       .  S
C39         C928   1.539       .  S
C40         C960   1.531       .  S
C41         C880   1.520       .  S
O42          C55   1.285       .  A
O42         Co50   2.054       .  S
O43          C56   1.307       .  A
O43         Co51   2.152       .  S
O44          C57   1.243       .  A
O44         Co52   1.940       .  S
O45          C58   1.271       .  A
O45         Co53   2.032       .  S
O46          C58   1.246       .  A
O46         Co51   1.980       .  S
O47          C57   1.266       .  A
O47         Co50   2.019       .  S
O48          C55   1.302       .  A
O48         Co53   2.073       .  S
O49          C56   1.255       .  A
O49         Co52   1.956       .  S
Co50         O54   2.117       .  S
Co51         O54   2.109       .  S
Co52         O54   2.103       .  S
Co53         O54   2.091       .  S
C55         C896   1.547       .  S
C56         C944   1.529       .  S
C57         C995   1.488       .  S
C58         C912   1.513       .  S
O59          C67   1.275       .  A
O59         Co79   2.000       .  S
O60          C68   1.258       .  A
O60         Co80   1.975       .  S
O61          C69   1.272       .  A
O61         Co81   2.013       .  S
O62          C70   1.249       .  A
O62         Co82   1.982       .  S
O63          C69   1.266       .  A
O63         Co80   1.993       .  S
O64          C70   1.274       .  A
O64         Co79   2.062       .  S
O65          C68   1.286       .  A
O65         Co82   2.029       .  S
O66          C67   1.272       .  A
O66         Co81   1.993       .  S
C67         C848   1.500       .  S
C68         C784   1.492       .  S
C69         C768   1.503       .  S
C70         C832   1.518       .  S
O71          C84   1.283       .  A
O71         Co79   2.058       .  S
O72          C85   1.273       .  A
O72         Co80   2.016       .  S
O73          C86   1.265       .  A
O73         Co81   1.939       .  S
O74          C87   1.258       .  A
O74         Co82   1.957       .  S
O75          C87   1.278       .  A
O75         Co80   2.054       .  S
O76          C86   1.275       .  A
O76         Co79   2.033       .  S
O77          C84   1.272       .  A
O77         Co82   1.980       .  S
O78          C85   1.266       .  A
O78         Co81   1.994       .  S
Co79         O83   2.123       .  S
Co80         O83   2.118       .  S
Co81         O83   2.071       .  S
Co82         O83   2.076       .  S
C84         C816   1.497       .  S
C85         C752   1.503       .  S
C86         C867   1.470       .  S
C87         C800   1.502       .  S
C88          C89   1.519   1_545  A
C88          C93   1.513   1_554  A
C88          N94   1.544       .  S
C89          C90   1.532   1_554  A
C89         N122   1.561       .  S
C90          C91   1.560   1_565  A
C90         N129   1.536   1_556  S
C91          C92   1.523       .  A
C91         N108   1.589   1_545  S
C92          C93   1.537       .  A
C92         N115   1.512       .  S
C93         N101   1.562   1_556  S
N94          C98   1.392       .  A
N94          C95   1.382   1_545  A
C95         C771   1.569       .  S
C95          C96   1.389       .  A
C96          C97   1.357   1_565  A
C96          H99   1.079   1_554  S
C97          C98   1.383       .  A
C97         H100   1.068       .  S
C98         C736   1.564       .  S
N101        C105   1.380   1_554  A
N101        C102   1.396       .  A
C102        C720   1.564       .  S
C102        C103   1.367       .  A
C103        C104   1.355       .  A
C103        H106   1.083       .  S
C104        C105   1.403   1_554  A
C104        H107   1.058   1_554  S
C105        C915   1.586       .  S
N108        C112   1.419       .  A
N108        C109   1.422   1_565  A
C109        C704   1.536       .  S
C109        C110   1.378   1_545  A
C110        C111   1.325       .  A
C110        H113   1.088       .  S
C111        C112   1.375       .  A
C111        H114   1.076       .  S
C112       C1059   1.554       .  S
N115        C119   1.400       .  A
N115        C116   1.392       .  A
C116        C688   1.482       .  S
C116        C117   1.388       .  A
C117        C118   1.331       .  A
C117        H120   1.086       .  S
C118        C119   1.374       .  A
C118        H121   1.080       .  S
C119        C947   1.503       .  S
N122        C126   1.394       .  A
N122        C123   1.382       .  A
C123        C851   1.557       .  S
C123        C124   1.375       .  A
C124        C125   1.364       .  A
C124        H127   1.079   1_554  S
C125        C126   1.368       .  A
C125        H128   1.076       .  S
C126        C672   1.558       .  S
N129        C133   1.368   1_554  A
N129        C130   1.407       .  A
C130        C656   1.576       .  S
C130        C131   1.370       .  A
C131        C132   1.349   1_554  A
C131        H134   1.079       .  S
C132        C133   1.402       .  A
C132        H135   1.083       .  S
C133       C1011   1.569       .  S
C136        C137   1.522       .  A
C136        C141   1.496       .  A
C136        N149   1.564       .  S
C137        C138   1.527   1_456  A
C137        N170   1.527       .  S
C138        C139   1.505       .  A
C138        N177   1.562       .  S
C139        C140   1.535   1_655  A
C139        N163   1.517       .  S
C140        C141   1.544   1_554  A
C140        N156   1.570       .  S
C141        N142   1.522       .  S
N142        C146   1.353   1_556  A
N142        C143   1.379       .  A
C143       C1024   1.565       .  S
C143        C144   1.391       .  A
C144        C145   1.349   1_556  A
C144        H147   1.080       .  S
C145        C146   1.392       .  A
C145        H148   1.079       .  S
C146        C640   1.519       .  S
N149        C153   1.363       .  A
N149        C150   1.415       .  A
C150       C1120   1.613       .  S
C150        C151   1.379       .  A
C151        C152   1.356       .  A
C151        H154   1.082       .  S
C152        C153   1.403       .  A
C152        H155   1.081       .  S
C153        C624   1.542       .  S
N156        C160   1.424       .  A
N156        C157   1.424       .  A
C157        C787   1.536   1_455  S
C157        C158   1.370       .  A
C158        C159   1.324       .  A
C158        H161   1.084       .  S
C159        C160   1.382       .  A
C159        H162   1.071       .  S
C160        C611   1.550       .  S
N163        C167   1.380       .  A
N163        C164   1.369       .  A
C164        C835   1.523       .  S
C164        C165   1.376       .  A
C165        C166   1.357       .  A
C165        H168   1.063       .  S
C166        C167   1.388       .  A
C166        H169   1.082   1_655  S
C167        C592   1.552       .  S
N170        C174   1.396       .  A
N170        C171   1.368   1_455  A
C171        C883   1.543       .  S
C171        C172   1.383   1_655  A
C172        C173   1.345   1_556  A
C172        H175   1.073   1_455  S
C173        C174   1.382   1_554  A
C173        H176   1.074       .  S
C174        C576   1.554       .  S
N177        C181   1.413   1_554  A
N177        C178   1.412       .  A
C178        C560   1.512       .  S
C178        C179   1.389   1_554  A
C179        C180   1.326       .  A
C179        H182   1.088       .  S
C180        C181   1.380       .  A
C180        H183   1.080       .  S
C181        C931   1.526       .  S
C184        C185   1.527       .  A
C184        C189   1.553       .  A
C184        N190   1.558       .  S
C185        C186   1.547       .  A
C185        N225   1.574       .  S
C186        C187   1.561       .  A
C186        N204   1.564       .  S
C187        C188   1.578       .  A
C187        N211   1.588       .  S
C188        C189   1.550       .  A
C188        N197   1.569       .  S
C189        N218   1.580       .  S
N190        C194   1.381       .  A
N190        C191   1.397       .  A
C191        C963   1.578       .  S
C191        C192   1.390       .  A
C192        C193   1.354       .  A
C192        H195   1.078       .  S
C193        C194   1.387       .  A
C193        H196   1.079       .  S
C194        C544   1.580       .  S
N197        C201   1.388       .  A
N197        C198   1.400       .  A
C198        C528   1.572       .  S
C198        C199   1.407       .  A
C199        C200   1.327       .  A
C199        H202   1.074       .  S
C200        C201   1.369       .  A
C200        H203   1.071       .  S
C201       C1075   1.565       .  S
N204        C208   1.388       .  A
N204        C205   1.370       .  A
C205        C819   1.557       .  S
C205        C206   1.400       .  A
C206        C207   1.344       .  A
C206        H209   1.064       .  S
C207        C208   1.379       .  A
C207        H210   1.078       .  S
C208        C515   1.613       .  S
N211        C215   1.401       .  A
N211        C212   1.379       .  A
C212        C496   1.538       .  S
C212        C213   1.395       .  A
C213        C214   1.351       .  A
C213        H216   1.085       .  S
C214        C215   1.370       .  A
C214        H217   1.078       .  S
C215        C864   1.630       .  S
N218        C222   1.372       .  A
N218        C219   1.403       .  A
C219       C1107   1.623       .  S
C219        C220   1.378       .  A
C220        C221   1.341       .  A
C220        H223   1.076       .  S
C221        C222   1.394       .  A
C221        H224   1.072       .  S
C222        C480   1.552       .  S
N225        C229   1.375       .  A
N225        C226   1.399       .  A
C226        C979   1.615       .  S
C226        C227   1.380       .  A
C227        C228   1.349       .  A
C227        H230   1.079       .  S
C228        C229   1.397       .  A
C228        H231   1.067       .  S
C229        C464   1.572       .  S
C232        C233   1.506   1_455  A
C232        C237   1.519       .  A
C232        N252   1.529       .  S
C233        C234   1.509       .  A
C233        N273   1.552       .  S
C234        C235   1.557   1_565  A
C234        N266   1.552       .  S
C235        C236   1.498       .  A
C235        N259   1.515       .  S
C236        C237   1.496   1_645  A
C236        N238   1.561       .  S
C237        N245   1.503   1_565  S
N238        C242   1.431       .  A
N238        C239   1.407       .  A
C239        C448   1.535   1_655  S
C239        C240   1.375       .  A
C240        C241   1.343       .  A
C240        H243   1.082       .  S
C241        C242   1.373       .  A
C241        H244   1.083       .  S
C242        C899   1.578       .  S
N245        C249   1.395   1_545  A
N245        C246   1.386       .  A
C246        C435   1.532       .  S
C246        C247   1.374       .  A
C247        C248   1.352       .  A
C247        H250   1.076       .  S
C248        C249   1.374   1_545  A
C248        H251   1.081       .  S
C249       C1043   1.527       .  S
N252        C256   1.393       .  A
N252        C253   1.375       .  A
C253       C1091   1.548       .  S
C253        C254   1.389       .  A
C254        C255   1.359       .  A
C254        H257   1.072       .  S
C255        C256   1.367       .  A
C255        H258   1.073       .  S
C256        C419   1.557       .  S
N259        C263   1.394       .  A
N259        C260   1.350       .  A
C260        C400   1.524       .  S
C260        C261   1.400       .  A
C261        C262   1.352   1_545  A
C261        H264   1.075   1_545  S
C262        C263   1.371   1_565  A
C262        H265   1.072       .  S
C263        C992   1.578       .  S
N266        C270   1.410       .  A
N266        C267   1.412   1_565  A
C267        C384   1.533       .  S
C267        C268   1.381       .  A
C268        C269   1.317       .  A
C268        H271   1.068       .  S
C269        C270   1.374   1_545  A
C269        H272   1.086   1_545  S
C270        C755   1.505       .  S
N273        C277   1.378       .  A
N273        C274   1.394   1_655  A
C274        C368   1.560       .  S
C274        C275   1.367       .  A
C275        C276   1.365   1_455  A
C275        H278   1.070       .  S
C276        C277   1.398       .  A
C276        H279   1.080       .  S
C277        C803   1.565       .  S
O280        C288   1.251       .  A
O280       Co300   1.955       .  S
O281        C289   1.291       .  A
O281       Co301   2.041       .  S
O282        C290   1.247       .  A
O282       Co302   1.986       .  S
O283        C291   1.273       .  A
O283       Co303   2.030       .  S
O284        C290   1.273       .  A
O284       Co301   2.024       .  S
O285        C291   1.243       .  A
O285       Co300   1.919       .  S
O286        C289   1.277       .  A
O286       Co303   1.986       .  S
O287        C288   1.284       .  A
O287       Co302   2.091       .  S
C288        C432   1.487       .  S
C289        C483   1.515       .  S
C290        C451   1.503       .  S
C291        C547   1.472       .  S
O292        C305   1.279       .  A
O292       Co300   2.022       .  S
O293        C306   1.290       .  A
O293       Co301   2.048       .  S
O294        C307   1.251       .  A
O294       Co302   1.986       .  S
O295        C308   1.282       .  A
O295       Co303   2.065       .  S
O296        C308   1.244       .  A
O296       Co301   1.971       .  S
O297        C307   1.263       .  A
O297       Co300   2.028       .  S
O298        C305   1.274       .  A
O298       Co303   1.972       .  S
O299        C306   1.262       .  A
O299       Co302   1.939       .  S
Co300       O304   2.078       .  S
Co301       O304   2.101       .  S
Co302       O304   2.092       .  S
Co303       O304   2.100       .  S
C305        C691   1.483       .  S
C306        C579   1.475       .  S
C307        C707   1.512       .  S
C308        C627   1.513       .  S
O309        C317   1.311       .  A
O309       Co329   2.159       .  S
O310        C318   1.281       .  A
O310       Co330   2.025       .  S
O311        C319   1.250       .  A
O311       Co331   1.966       .  S
O312        C320   1.277       .  A
O312       Co332   2.067       .  S
O313        C319   1.261       .  A
O313       Co330   2.013       .  S
O314        C320   1.230       .  A
O314       Co329   1.938       .  S
O315        C318   1.272       .  A
O315       Co332   1.982       .  S
O316        C317   1.256       .  A
O316       Co331   1.947       .  S
C317        C387   1.523       .  S
C318        C595   1.505       .  S
C319        C563   1.493       .  S
C320        C403   1.488       .  S
O321        C334   1.306       .  A
O321       Co329   2.073       .  S
O322        C335   1.256       .  A
O322       Co330   1.942       .  S
O323        C336   1.261       .  A
O323       Co331   2.018       .  S
O324        C337   1.276       .  A
O324       Co332   2.064       .  S
O325        C337   1.248       .  A
O325       Co330   1.927       .  S
O326        C336   1.272       .  A
O326       Co329   2.044       .  S
O327        C334   1.276       .  A
O327       Co332   2.006       .  S
O328        C335   1.288       .  A
O328       Co331   2.076       .  S
Co329       O333   2.092       .  S
Co330       O333   2.068       .  S
Co331       O333   2.110       .  S
Co332       O333   2.127       .  S
C334        C467   1.525       .  S
C335        C723   1.497       .  S
C336        C739   1.535       .  S
C337        C512   1.496       .  S
O338        C346   1.278       .  A
O338       Co358   1.985       .  S
O339        C347   1.270       .  A
O339       Co359   1.983       .  S
O340        C348   1.270       .  A
O340       Co360   2.032       .  S
O341        C349   1.234       .  A
O341       Co361   1.935       .  S
O342        C348   1.269       .  A
O342       Co359   2.026       .  S
O343        C349   1.272       .  A
O343       Co358   2.051       .  S
O344        C347   1.310       .  A
O344       Co361   2.154       .  S
O345        C346   1.291       .  A
O345       Co360   2.048       .  S
C346        C499   1.491       .  S
C347        C608   1.544       .  S
C348        C531   1.533       .  S
C349        C643   1.489       .  S
O350        C363   1.280       .  A
O350       Co358   2.037       .  S
O351        C364   1.279       .  A
O351       Co359   2.037       .  S
O352        C365   1.279       .  A
O352       Co360   2.059       .  S
O353        C366   1.259       .  A
O353       Co361   1.992       .  S
O354        C366   1.273       .  A
O354       Co359   2.047       .  S
O355        C365   1.266       .  A
O355       Co358   2.015       .  S
O356        C363   1.293       .  A
O356       Co361   2.042       .  S
O357        C364   1.287       .  A
O357       Co360   2.027       .  S
Co358       O362   2.103       .  S
Co359       O362   2.108       .  S
Co360       O362   2.104       .  S
Co361       O362   2.095       .  S
C363        C659   1.527       .  S
C364        C416   1.535       .  S
C365        C675   1.543       .  S
C366        C371   1.525       .  S
C367        C368   1.421       .  A
C367        C372   1.430       .  A
C367        H374   1.082       .  S
C368        C369   1.459       .  A
C369        C370   1.413       .  A
C369        C376   1.535       .  S
C370        C371   1.395       .  A
C370        H375   1.082       .  S
C371        C372   1.423       .  A
C372        C373   1.518       .  S
C373        F377   1.385       .  S
C373        F378   1.383       .  S
C373        F379   1.379       .  S
C376        F380   1.366   1_455  S
C376        F381   1.382       .  S
C376        F382   1.387       .  S
C383        C384   1.428       .  A
C383        C388   1.431       .  A
C383        H390   1.078       .  S
C384        C385   1.405       .  A
C385        C386   1.434       .  A
C385        C392   1.499       .  S
C386        C387   1.414       .  A
C386        H391   1.071       .  S
C387        C388   1.419       .  A
C388        C389   1.513       .  S
C389        F393   1.384       .  S
C389        F394   1.383       .  S
C389        F395   1.383       .  S
C392        F396   1.383   1_655  S
C392        F397   1.382       .  S
C392        F398   1.379       .  S
C399        C400   1.432       .  A
C399        C404   1.426       .  A
C399        H406   1.079       .  S
C400        C401   1.420       .  A
C401        C402   1.384       .  A
C401        C408   1.527       .  S
C402        C403   1.414       .  A
C402        H407   1.084       .  S
C403        C404   1.400       .  A
C404        C405   1.522       .  S
C405        F409   1.376       .  S
C405        F410   1.384       .  S
C405        F411   1.379       .  S
C408        F412   1.377       .  S
C408        F413   1.382       .  S
C408        F414   1.386       .  S
C415        C416   1.412       .  A
C415        C420   1.428       .  A
C415        H422   1.083       .  S
C416        C417   1.436       .  A
C417        C418   1.421       .  A
C417        C424   1.533       .  S
C418        C419   1.410       .  A
C418        H423   1.072       .  S
C419        C420   1.437       .  A
C420        C421   1.521       .  S
C421        F425   1.383       .  S
C421        F426   1.382   1_565  S
C421        F427   1.383   1_565  S
C424        F428   1.379       .  S
C424        F429   1.377       .  S
C424        F430   1.383       .  S
C431        C432   1.398       .  A
C431        C436   1.408       .  A
C431        H438   1.080       .  S
C432        C433   1.431       .  A
C433        C434   1.434       .  A
C433        C440   1.514       .  S
C434        C435   1.416       .  A
C434        H439   1.081       .  S
C435        C436   1.434       .  A
C436        C437   1.538       .  S
C437        F441   1.388       .  S
C437        F442   1.384       .  S
C437        F443   1.380       .  S
C440        F444   1.382       .  S
C440        F445   1.374       .  S
C440        F446   1.381       .  S
C447        C448   1.397       .  A
C447        C452   1.403       .  A
C447        H454   1.064       .  S
C448        C449   1.436       .  A
C449        C450   1.419       .  A
C449        C456   1.510       .  S
C450        C451   1.404       .  A
C450        H455   1.083       .  S
C451        C452   1.428       .  A
C452        C453   1.534       .  S
C453        F457   1.365       .  S
C453        F458   1.381       .  S
C453        F459   1.372       .  S
C456        F460   1.383       .  S
C456        F461   1.371       .  S
C456        F462   1.379       .  S
C463        C464   1.413       .  A
C463        C468   1.408       .  A
C463        H470   1.077       .  S
C464        C465   1.460       .  A
C465        C466   1.433       .  A
C465        C472   1.520       .  S
C466        C467   1.403       .  A
C466        H471   1.083       .  S
C467        C468   1.433       .  A
C468        C469   1.529       .  S
C469        F473   1.386       .  S
C469        F474   1.383       .  S
C469        F475   1.384       .  S
C472        F476   1.373       .  S
C472        F477   1.383       .  S
C472        F478   1.380       .  S
C479        C480   1.431       .  A
C479        C484   1.432       .  A
C479        H486   1.082       .  S
C480        C481   1.451       .  A
C481        C482   1.401       .  A
C481        C488   1.540       .  S
C482        C483   1.402       .  A
C482        H487   1.086       .  S
C483        C484   1.407       .  A
C484        C485   1.512       .  S
C485        F489   1.383       .  S
C485        F490   1.373       .  S
C485        F491   1.384       .  S
C488        F492   1.384       .  S
C488        F493   1.361       .  S
C488        F494   1.385       .  S
C495        C496   1.421       .  A
C495        C500   1.383       .  A
C495        H502   1.075       .  S
C496        C497   1.435       .  A
C497        C498   1.429       .  A
C497        C504   1.522       .  S
C498        C499   1.412       .  A
C498        H503   1.081       .  S
C499        C500   1.402       .  A
C500        C501   1.521       .  S
C501        F505   1.384       .  S
C501        F506   1.383       .  S
C501        F507   1.380       .  S
C504        F508   1.376       .  S
C504        F509   1.378       .  S
C504        F510   1.382       .  S
C511        C512   1.386       .  A
C511        C516   1.415       .  A
C511        H518   1.085       .  S
C512        C513   1.414       .  A
C513        C514   1.400       .  A
C513        C520   1.518       .  S
C514        C515   1.423       .  A
C514        H519   1.065       .  S
C515        C516   1.463       .  A
C516        C517   1.505       .  S
C517        F521   1.386       .  S
C517        F522   1.349       .  S
C517        F523   1.383       .  S
C520        F524   1.380       .  S
C520        F525   1.384       .  S
C520        F526   1.385       .  S
C527        C528   1.421       .  A
C527        C532   1.442       .  A
C527        H534   1.081       .  S
C528        C529   1.447       .  A
C529        C530   1.411       .  A
C529        C536   1.528       .  S
C530        C531   1.400       .  A
C530        H535   1.083       .  S
C531        C532   1.426       .  A
C532        C533   1.519       .  S
C533        F537   1.385       .  S
C533        F538   1.380       .  S
C533        F539   1.383       .  S
C536        F540   1.377       .  S
C536        F541   1.388       .  S
C536        F542   1.383       .  S
C543        C544   1.431       .  A
C543        C548   1.405       .  A
C543        H550   1.076       .  S
C544        C545   1.458       .  A
C545        C546   1.395       .  A
C545        C552   1.499       .  S
C546        C547   1.375       .  A
C546        H551   1.087       .  S
C547        C548   1.407       .  A
C548        C549   1.524       .  S
C549        F553   1.384       .  S
C549        F554   1.379       .  S
C549        F555   1.384       .  S
C552        F556   1.330       .  S
C552        F557   1.383       .  S
C552        F558   1.378       .  S
C559        C560   1.417       .  A
C559        C564   1.407       .  A
C559        H566   1.073       .  S
C560        C561   1.432       .  A
C561        C562   1.413       .  A
C561        C568   1.516       .  S
C562        C563   1.405       .  A
C562        H567   1.082       .  S
C563        C564   1.407       .  A
C564        C565   1.522       .  S
C565        F569   1.376       .  S
C565        F570   1.383       .  S
C565        F571   1.385       .  S
C568        F572   1.381   1_655  S
C568        F573   1.381       .  S
C568        F574   1.383       .  S
C575        C576   1.415       .  A
C575        C580   1.386       .  A
C575        H582   1.052       .  S
C576        C577   1.442       .  A
C577        C578   1.421       .  A
C577        C584   1.524       .  S
C578        C579   1.408       .  A
C578        H583   1.084       .  S
C579        C580   1.395       .  A
C580        C581   1.526       .  S
C581        F585   1.371       .  S
C581        F586   1.376       .  S
C581        F587   1.381       .  S
C584        F588   1.383   1_556  S
C584        F589   1.381   1_556  S
C584        F590   1.385       .  S
C591        C592   1.428       .  A
C591        C596   1.419       .  A
C591        H598   1.081       .  S
C592        C593   1.445       .  A
C593        C594   1.400       .  A
C593        C600   1.517       .  S
C594        C595   1.398       .  A
C594        H599   1.084       .  S
C595        C596   1.414       .  A
C596        C597   1.518       .  S
C597        F601   1.385       .  S
C597        F602   1.382       .  S
C597        F603   1.383       .  S
C600        F604   1.372       .  S
C600        F605   1.375       .  S
C600        F606   1.378       .  S
C607        C608   1.415       .  A
C607        C612   1.443       .  A
C607        H614   1.070       .  S
C608        C609   1.422       .  A
C609        C610   1.444       .  A
C609        C616   1.514       .  S
C610        C611   1.428       .  A
C610        H615   1.078       .  S
C611        C612   1.416       .  A
C612        C613   1.509       .  S
C613        F617   1.381       .  S
C613        F618   1.383       .  S
C613        F619   1.383       .  S
C616        F620   1.382       .  S
C616        F621   1.383       .  S
C616        F622   1.384       .  S
C623        C624   1.407       .  A
C623        C628   1.394       .  A
C623        H630   1.079       .  S
C624        C625   1.448       .  A
C625        C626   1.431       .  A
C625        C632   1.522       .  S
C626        C627   1.406       .  A
C626        H631   1.083       .  S
C627        C628   1.434       .  A
C628        C629   1.532       .  S
C629        F633   1.386       .  S
C629        F634   1.384       .  S
C629        F635   1.385       .  S
C632        F636   1.371       .  S
C632        F637   1.379       .  S
C632        F638   1.382       .  S
C639        C640   1.429       .  A
C639        C644   1.419       .  A
C639        H646   1.075       .  S
C640        C641   1.424       .  A
C641        C642   1.391       .  A
C641        C648   1.524       .  S
C642        C643   1.416       .  A
C642        H647   1.084       .  S
C643        C644   1.400       .  A
C644        C645   1.522       .  S
C645        F649   1.384       .  S
C645        F650   1.378       .  S
C645        F651   1.383       .  S
C648        F652   1.383       .  S
C648        F653   1.376   1_554  S
C648        F654   1.386       .  S
C655        C656   1.414       .  A
C655        C660   1.416       .  A
C655        H662   1.061       .  S
C656        C657   1.443       .  A
C657        C658   1.432       .  A
C657        C664   1.519       .  S
C658        C659   1.409       .  A
C658        H663   1.083       .  S
C659        C660   1.430       .  A
C660        C661   1.538       .  S
C661        F665   1.380       .  S
C661        F666   1.383       .  S
C661        F667   1.378       .  S
C664        F668   1.383   1_565  S
C664        F669   1.382   1_565  S
C664        F670   1.381       .  S
C671        C672   1.428       .  A
C671        C676   1.444       .  A
C671        H678   1.082       .  S
C672        C673   1.456       .  A
C673        C674   1.409       .  A
C673        C680   1.542       .  S
C674        C675   1.404       .  A
C674        H679   1.082       .  S
C675        C676   1.425       .  A
C676        C677   1.512       .  S
C677        F681   1.384       .  S
C677        F682   1.383       .  S
C677        F683   1.380       .  S
C680        F684   1.387       .  S
C680        F685   1.365       .  S
C680        F686   1.381       .  S
C687        C688   1.414       .  A
C687        C692   1.393       .  A
C687        H694   1.080       .  S
C688        C689   1.429       .  A
C689        C690   1.413       .  A
C689        C696   1.513       .  S
C690        C691   1.405       .  A
C690        H695   1.083       .  S
C691        C692   1.413       .  A
C692        C693   1.523       .  S
C693        F697   1.384       .  S
C693        F698   1.380       .  S
C693        F699   1.380       .  S
C696        F700   1.382       .  S
C696        F701   1.383       .  S
C696        F702   1.382       .  S
C703        C704   1.418       .  A
C703        C708   1.414       .  A
C703        H710   1.061       .  S
C704        C705   1.433       .  A
C705        C706   1.424       .  A
C705        C712   1.519       .  S
C706        C707   1.412       .  A
C706        H711   1.082       .  S
C707        C708   1.413       .  A
C708        C709   1.524       .  S
C709        F713   1.362       .  S
C709        F714   1.380       .  S
C709        F715   1.384       .  S
C712        F716   1.380       .  S
C712        F717   1.381       .  S
C712        F718   1.384       .  S
C719        C720   1.412       .  A
C719        C724   1.424       .  A
C719        H726   1.082       .  S
C720        C721   1.430       .  A
C721        C722   1.398       .  A
C721        C728   1.543       .  S
C722        C723   1.405       .  A
C722        H727   1.082       .  S
C723        C724   1.443       .  A
C724        C725   1.509       .  S
C725        F729   1.385       .  S
C725        F730   1.379       .  S
C725        F731   1.380       .  S
C728        F732   1.367       .  S
C728        F733   1.382       .  S
C728        F734   1.388       .  S
C735        C736   1.425       .  A
C735        C740   1.435       .  A
C735        H742   1.083       .  S
C736        C737   1.452       .  A
C737        C738   1.415       .  A
C737        C744   1.531       .  S
C738        C739   1.407       .  A
C738        H743   1.083       .  S
C739        C740   1.426       .  A
C740        C741   1.519       .  S
C741        F745   1.382       .  S
C741        F746   1.379       .  S
C741        F747   1.379       .  S
C744        F748   1.372       .  S
C744        F749   1.368   1_545  S
C744        F750   1.387       .  S
C751        C752   1.397       .  A
C751        C756   1.388       .  A
C751        H758   1.080       .  S
C752        C753   1.421       .  A
C753        C754   1.425       .  A
C753        C760   1.517       .  S
C754        C755   1.420       .  A
C754        H759   1.083       .  S
C755        C756   1.434       .  A
C756        C757   1.505       .  S
C757        F761   1.384       .  S
C757        F762   1.368       .  S
C757        F763   1.373       .  S
C760        F764   1.375       .  S
C760        F765   1.384       .  S
C760        F766   1.385       .  S
C767        C768   1.394       .  A
C767        C772   1.402       .  A
C767        H774   1.079       .  S
C768        C769   1.411       .  A
C769        C770   1.419       .  A
C769        C776   1.521       .  S
C770        C771   1.435       .  A
C770        H775   1.075       .  S
C771        C772   1.446       .  A
C772        C773   1.507       .  S
C773        F777   1.377       .  S
C773        F778   1.369       .  S
C773        F779   1.370   1_565  S
C776        F780   1.385       .  S
C776        F781   1.375       .  S
C776        F782   1.384       .  S
C783        C784   1.368       .  A
C783        C788   1.377       .  A
C783        H790   1.088       .  S
C784        C785   1.418       .  A
C785        C786   1.437       .  A
C785        C792   1.510       .  S
C786        C787   1.421       .  A
C786        H791   1.083       .  S
C787        C788   1.463       .  A
C788        C789   1.511       .  S
C789        F793   1.387       .  S
C789        F794   1.384   1_655  S
C789        F795   1.331   1_655  S
C792        F796   1.383       .  S
C792        F797   1.378       .  S
C792        F798   1.384   1_554  S
C799        C800   1.391       .  A
C799        C804   1.412       .  A
C799        H806   1.085       .  S
C800        C801   1.413       .  A
C801        C802   1.412       .  A
C801        C808   1.521       .  S
C802        C803   1.426       .  A
C802        H807   1.080       .  S
C803        C804   1.455       .  A
C804        C805   1.514       .  S
C805        F809   1.375       .  S
C805        F810   1.379   1_655  S
C805        F811   1.368       .  S
C808        F812   1.384       .  S
C808        F813   1.377       .  S
C808        F814   1.385       .  S
C815        C816   1.405       .  A
C815        C820   1.420       .  A
C815        H822   1.084       .  S
C816        C817   1.410       .  A
C817        C818   1.399       .  A
C817        C824   1.520       .  S
C818        C819   1.418       .  A
C818        H823   1.076       .  S
C819        C820   1.452       .  A
C820        C821   1.528       .  S
C821        F825   1.379       .  S
C821        F826   1.384       .  S
C821        F827   1.380       .  S
C824        F828   1.385       .  S
C824        F829   1.382       .  S
C824        F830   1.384       .  S
C831        C832   1.410       .  A
C831        C836   1.381       .  A
C831        H838   1.083       .  S
C832        C833   1.424       .  A
C833        C834   1.436       .  A
C833        C840   1.516       .  S
C834        C835   1.427       .  A
C834        H839   1.083       .  S
C835        C836   1.432       .  A
C836        C837   1.538       .  S
C837        F841   1.381       .  S
C837        F842   1.370       .  S
C837        F843   1.388       .  S
C840        F844   1.377       .  S
C840        F845   1.382       .  S
C840        F846   1.383       .  S
C847        C848   1.399       .  A
C847        C852   1.398       .  A
C847        H854   1.086       .  S
C848        C849   1.407       .  A
C849        C850   1.418       .  A
C849        C856   1.518       .  S
C850        C851   1.434       .  A
C850        H855   1.082       .  S
C851        C852   1.444       .  A
C852        C853   1.518       .  S
C853        F857   1.377       .  S
C853        F858   1.377       .  S
C853        F859   1.373       .  S
C856        F860   1.383       .  S
C856        F861   1.376       .  S
C856        F862   1.384   1_554  S
C863        C864   1.442       .  A
C863        C868   1.389       .  A
C863        H870   1.070       .  S
C864        C865   1.463       .  A
C865        C866   1.413       .  A
C865        C872   1.512       .  S
C866        C867   1.389       .  A
C866        H871   1.085       .  S
C867        C868   1.391       .  A
C868        C869   1.521       .  S
C869        F873   1.385       .  S
C869        F874   1.385       .  S
C869        F875   1.381       .  S
C872        F876   1.383       .  S
C872        F877   1.356       .  S
C872        F878   1.386       .  S
C879        C880   1.411       .  A
C879        C884   1.401       .  A
C879        H886   1.083       .  S
C880        C881   1.425       .  A
C881        C882   1.424       .  A
C881        C888   1.516       .  S
C882        C883   1.418       .  A
C882        H887   1.077       .  S
C883        C884   1.435       .  A
C884        C885   1.528       .  S
C885        F889   1.383       .  S
C885        F890   1.376   1_655  S
C885        F891   1.386   1_655  S
C888        F892   1.375       .  S
C888        F893   1.379       .  S
C888        F894   1.382       .  S
C895        C896   1.415       .  A
C895        C900   1.424       .  A
C895        H902   1.083       .  S
C896        C897   1.430       .  A
C897        C898   1.463       .  A
C897        C904   1.514       .  S
C898        C899   1.435       .  A
C898        H903   1.074       .  S
C899        C900   1.434       .  A
C900        C901   1.527       .  S
C901        F905   1.384       .  S
C901        F906   1.386       .  S
C901        F907   1.371       .  S
C904        F908   1.377       .  S
C904        F909   1.383       .  S
C904        F910   1.381       .  S
C911        C912   1.399       .  A
C911        C916   1.416       .  A
C911        H918   1.085       .  S
C912        C913   1.405       .  A
C913        C914   1.427       .  A
C913        C920   1.514       .  S
C914        C915   1.421       .  A
C914        H919   1.059       .  S
C915        C916   1.468       .  A
C916        C917   1.541       .  S
C917        F921   1.385       .  S
C917        F922   1.386       .  S
C917        F923   1.358       .  S
C920        F924   1.380   1_556  S
C920        F925   1.380       .  S
C920        F926   1.380       .  S
C927        C928   1.408       .  A
C927        C932   1.429       .  A
C927        H934   1.080       .  S
C928        C929   1.430       .  A
C929        C930   1.438       .  A
C929        C936   1.507       .  S
C930        C931   1.416       .  A
C930        H935   1.082       .  S
C931        C932   1.429       .  A
C932        C933   1.502       .  S
C933        F937   1.384       .  S
C933        F938   1.381       .  S
C933        F939   1.377   1_556  S
C936        F940   1.382       .  S
C936        F941   1.374       .  S
C936        F942   1.384       .  S
C943        C944   1.406       .  A
C943        C948   1.424       .  A
C943        H950   1.083       .  S
C944        C945   1.433       .  A
C945        C946   1.430       .  A
C945        C952   1.520       .  S
C946        C947   1.408       .  A
C946        H951   1.083       .  S
C947        C948   1.424       .  A
C948        C949   1.489       .  S
C949        F953   1.382       .  S
C949        F954   1.378       .  S
C949        F955   1.383       .  S
C952        F956   1.368       .  S
C952        F957   1.383       .  S
C952        F958   1.385       .  S
C959        C960   1.404       .  A
C959        C964   1.425       .  A
C959        H966   1.084       .  S
C960        C961   1.421       .  A
C961        C962   1.423       .  A
C961        C968   1.522       .  S
C962        C963   1.426       .  A
C962        H967   1.084       .  S
C963        C964   1.456       .  A
C964        C965   1.531       .  S
C965        F969   1.382       .  S
C965        F970   1.360       .  S
C965        F971   1.385       .  S
C968        F972   1.377       .  S
C968        F973   1.380       .  S
C968        F974   1.384       .  S
C975        C976   1.386       .  A
C975        C980   1.409       .  A
C975        H982   1.086       .  S
C976        C977   1.411       .  A
C977        C978   1.416       .  A
C977        C984   1.512       .  S
C978        C979   1.430       .  A
C978        H983   1.076       .  S
C979        C980   1.466       .  A
C980        C981   1.502       .  S
C981        F985   1.377       .  S
C981        F986   1.333       .  S
C981        F987   1.373       .  S
C984        F988   1.383       .  S
C984        F989   1.378       .  S
C984        F990   1.385       .  S
C991        C992   1.415       .  A
C991        C996   1.392       .  A
C991        H998   1.056       .  S
C992        C993   1.447       .  A
C993        C994   1.424       .  A
C993       C1000   1.526   1_545  S
C994        C995   1.406       .  A
C994        H999   1.079       .  S
C995        C996   1.389       .  A
C996        C997   1.516       .  S
C997       F1001   1.368       .  S
C997       F1002   1.384       .  S
C997       F1003   1.384       .  S
C1000      F1004   1.381       .  S
C1000      F1005   1.383       .  S
C1000      F1006   1.385       .  S
C1007      C1008   1.390       .  A
C1007      C1012   1.424       .  A
C1007      H1014   1.078       .  S
C1008      C1009   1.425       .  A
C1009      C1010   1.395       .  A
C1009      C1016   1.528       .  S
C1010      C1011   1.412       .  A
C1010      H1015   1.079       .  S
C1011      C1012   1.454       .  A
C1012      C1013   1.504       .  S
C1013      F1017   1.376       .  S
C1013      F1018   1.376       .  S
C1013      F1019   1.378       .  S
C1016      F1020   1.378       .  S
C1016      F1021   1.383       .  S
C1016      F1022   1.382       .  S
C1023      C1024   1.431       .  A
C1023      C1028   1.411       .  A
C1023      H1030   1.078       .  S
C1024      C1025   1.454       .  A
C1025      C1026   1.396       .  A
C1025      C1032   1.520       .  S
C1026      C1027   1.393       .  A
C1026      H1031   1.082       .  S
C1027      C1028   1.404       .  A
C1028      C1029   1.517       .  S
C1029      F1033   1.384       .  S
C1029      F1034   1.382       .  S
C1029      F1035   1.384       .  S
C1032      F1036   1.365       .  S
C1032      F1037   1.375       .  S
C1032      F1038   1.378       .  S
C1039      C1040   1.419       .  A
C1039      C1044   1.424       .  A
C1039      H1046   1.082       .  S
C1040      C1041   1.408       .  A
C1041      C1042   1.397       .  A
C1041      C1048   1.525       .  S
C1042      C1043   1.408       .  A
C1042      H1047   1.054       .  S
C1043      C1044   1.421       .  A
C1044      C1045   1.519       .  S
C1045      F1049   1.385       .  S
C1045      F1050   1.384   1_455  S
C1045      F1051   1.378       .  S
C1048      F1052   1.378       .  S
C1048      F1053   1.384       .  S
C1048      F1054   1.373       .  S
C1055      C1056   1.408       .  A
C1055      C1060   1.431       .  A
C1055      H1062   1.080       .  S
C1056      C1057   1.446       .  A
C1057      C1058   1.446       .  A
C1057      C1064   1.519       .  S
C1058      C1059   1.413       .  A
C1058      H1063   1.078       .  S
C1059      C1060   1.435       .  A
C1060      C1061   1.536       .  S
C1061      F1065   1.388       .  S
C1061      F1066   1.385       .  S
C1061      F1067   1.376   1_565  S
C1064      F1068   1.383       .  S
C1064      F1069   1.375       .  S
C1064      F1070   1.383       .  S
C1071      C1072   1.409       .  A
C1071      C1076   1.401       .  A
C1071      H1078   1.082       .  S
C1072      C1073   1.400       .  A
C1073      C1074   1.408       .  A
C1073      C1080   1.521       .  S
C1074      C1075   1.421       .  A
C1074      H1079   1.075       .  S
C1075      C1076   1.434       .  A
C1076      C1077   1.528       .  S
C1077      F1081   1.384       .  S
C1077      F1082   1.383       .  S
C1077      F1083   1.379       .  S
C1080      F1084   1.380       .  S
C1080      F1085   1.381       .  S
C1080      F1086   1.376       .  S
C1087      C1088   1.409       .  A
C1087      C1092   1.430       .  A
C1087      H1094   1.083       .  S
C1088      C1089   1.429       .  A
C1089      C1090   1.393       .  A
C1089      C1096   1.535       .  S
C1090      C1091   1.414       .  A
C1090      H1095   1.079       .  S
C1091      C1092   1.437       .  A
C1092      C1093   1.513       .  S
C1093      F1097   1.373       .  S
C1093      F1098   1.381       .  S
C1093      F1099   1.380       .  S
C1096      F1100   1.382       .  S
C1096      F1101   1.381       .  S
C1096      F1102   1.385       .  S
C1103      C1104   1.411       .  A
C1103      C1108   1.436       .  A
C1103      H1110   1.084       .  S
C1104      C1105   1.409       .  A
C1105      C1106   1.422       .  A
C1105      C1112   1.522       .  S
C1106      C1107   1.440       .  A
C1106      H1111   1.066       .  S
C1107      C1108   1.455       .  A
C1108      C1109   1.517       .  S
C1109      F1113   1.372       .  S
C1109      F1114   1.377       .  S
C1109      F1115   1.374       .  S
C1112      F1116   1.383       .  S
C1112      F1117   1.382       .  S
C1112      F1118   1.384       .  S
C1119      C1120   1.436       .  A
C1119      C1124   1.441       .  A
C1119      H1126   1.083       .  S
C1120      C1121   1.454       .  A
C1121      C1122   1.417       .  A
C1121      C1128   1.486       .  S
C1122      C1123   1.384       .  A
C1122      H1127   1.088       .  S
C1123      C1124   1.426       .  A
C1124      C1125   1.513       .  S
C1125      F1129   1.382       .  S
C1125      F1130   1.383       .  S
C1125      F1131   1.380       .  S
C1128      F1132   1.375       .  S
C1128      F1133   1.355       .  S
C1128      F1134   1.377       .  S
