geometry optimzed in LAMMPS
_audit_creation_date              2020-11-30 
_audit_creation_method            'lammps2cif' 
_symmetry_space_group_name_H-M    'P1' 
_symmetry_Int_Tables_number       1 
_symmetry_cell_setting            triclinic 
loop_ 
_symmetry_equiv_pos_as_xyz 
  x,y,z 
_cell_length_a                    78.23543899 
_cell_length_b                    78.2648034782301 
_cell_length_c                    41.44833664497185 
_cell_angle_alpha                 89.67951035565723 
_cell_angle_beta                  89.78005721085098 
_cell_angle_gamma                 120.82873839969861 
loop_ 
_atom_site_label 
_atom_site_type_symbol 
_atom_site_fract_x 
_atom_site_fract_y 
_atom_site_fract_z 
_atom_site_charge 
O1          O  0.75208712  0.21894326  0.28303002    -0.72600
O2          O  0.78784405  0.25532588  0.21265547    -0.73600
O3          O  0.78826504  0.25610083  0.28146255    -0.62200
O4          O  0.75145087  0.21814731  0.21446969    -0.70600
O5          O  0.73440737  0.23366040  0.21443970    -0.70200
O6          O  0.77132594  0.27171732  0.28043781    -0.61400
O7          O  0.77078723  0.27080806  0.21214658    -0.73900
O8          O  0.73514808  0.23457251  0.28247986    -0.72700
Cu9        Cu  0.77051962  0.23658422  0.24789713     1.04600
Cu10       Cu  0.75235923  0.25323696  0.24735529     1.04300
C11         C  0.73792110  0.22098322  0.29384609     0.93600
C12         C  0.78497762  0.26884966  0.20119617     0.92700
C13         C  0.78550198  0.26990388  0.29166132     0.84900
C14         C  0.73705221  0.21986668  0.20393505     0.91200
N15         N  0.42250735  0.84936051  0.06601384    -0.26900
N16         N  0.41695848  0.83269964  0.05031246    -0.34800
C17         C  0.41548523  0.81881028  0.07115310     0.01400
C18         C  0.42053056  0.82713119  0.10151888     0.07400
C19         C  0.42490587  0.84656172  0.09734358    -0.05700
H20         H  0.41278912  0.80434439  0.06411744     0.08100
H21         H  0.43053626  0.85813332  0.11531471     0.09300
Cu22       Cu  0.41613711  0.83082807  0.00065361     0.44200
Cu23       Cu  0.42937181  0.87567523  0.04281994     0.42000
Cu24       Cu  0.43317008  0.87617856  0.45918125     0.43900
N25         N  0.41916831  0.83258466  0.45292128    -0.34300
N26         N  0.42638727  0.84965127  0.43713548    -0.28600
C27         C  0.42986432  0.84699646  0.40629009    -0.04700
C28         C  0.42457235  0.82727861  0.40242046     0.07500
C29         C  0.41784742  0.81863795  0.43261029     0.01300
H30         H  0.43641419  0.85875371  0.38832712     0.09000
H31         H  0.41356595  0.80367773  0.43996568     0.08100
N32         N  0.43980928  0.90078048  0.48712405    -0.35800
N33         N  0.43700871  0.90026429  0.01379868    -0.28000
C34         C  0.44170842  0.91843670  0.02388766    -0.03200
C35         C  0.44621185  0.93079133  0.99719887     0.05400
C36         C  0.44564863  0.91928308  0.47664036     0.03500
H37         H  0.44202259  0.92237314  0.04894347     0.08600
H38         H  0.44730703  0.92356285  0.45146777     0.07400
N39         N  0.28510214  0.91100751  0.42747352    -0.26900
N40         N  0.26822949  0.90504403  0.44328679    -0.34800
C41         C  0.25291129  0.89540592  0.42295938     0.01400
C42         C  0.26038765  0.89508160  0.39285718     0.07400
C43         C  0.28087756  0.90500684  0.39661197    -0.05700
H44         H  0.23740198  0.88813667  0.43007439     0.08100
H45         H  0.29185974  0.90739431  0.37842186     0.09300
Cu46       Cu  0.26665317  0.90689998  0.99038435     0.44200
Cu47       Cu  0.31285875  0.92650778  0.44945659     0.42000
Cu48       Cu  0.31120485  0.92801832  0.03560758     0.43900
N49         N  0.26669783  0.90486012  0.04003565    -0.34300
N50         N  0.28318993  0.91221900  0.05701054    -0.28600
C51         C  0.27835238  0.90655626  0.08804764    -0.04700
C52         C  0.25775484  0.89511734  0.09071461     0.07500
C53         C  0.25092876  0.89438239  0.05966298     0.01300
H54         H  0.28906302  0.91004439  0.10704862     0.09000
H55         H  0.23571539  0.88584423  0.05144274     0.08100
N56         N  0.33718025  0.94256212  0.00814186    -0.35800
N57         N  0.33776457  0.94245407  0.47850794    -0.28000
C58         C  0.35684540  0.95398190  0.46882954    -0.03200
C59         C  0.36887831  0.96171349  0.99368355     0.05400
C60         C  0.35562388  0.95460854  0.01945625     0.03500
H61         H  0.36165658  0.95644805  0.44387287     0.08600
H62         H  0.35906867  0.95799743  0.04470545     0.07400
N63         N  0.52709920  0.21870509  0.07198655    -0.26900
N64         N  0.53124200  0.23505121  0.05599554    -0.34800
C65         C  0.53161797  0.24834681  0.07673730     0.01400
C66         C  0.52728771  0.23995930  0.10734732     0.07400
C67         C  0.52464285  0.22115674  0.10341895    -0.05700
H68         H  0.53333881  0.26246918  0.06960310     0.08100
H69         H  0.52041817  0.20973679  0.12167691     0.09300
Cu70       Cu  0.53237438  0.23740834  0.00630772     0.44200
Cu71       Cu  0.52223065  0.19294743  0.04961454     0.42000
Cu72       Cu  0.51970224  0.19260364  0.46288854     0.43900
N73         N  0.52843726  0.23469995  0.45799074    -0.34300
N74         N  0.52345600  0.21838129  0.44164034    -0.28600
C75         C  0.51959552  0.22097399  0.41100579    -0.04700
C76         C  0.52230398  0.23987029  0.40796533     0.07500
C77         C  0.52789057  0.24809489  0.43833378     0.01300
H78         H  0.51452131  0.20966235  0.39265160     0.09000
H79         H  0.53011021  0.26223015  0.44626495     0.08100
N80         N  0.51383761  0.16803974  0.49073941    -0.35800
N81         N  0.51583777  0.16865639  0.02119015    -0.28000
C82         C  0.51115581  0.15041185  0.03142483    -0.03200
C83         C  0.50683784  0.13824850  0.00477775     0.05400
C84         C  0.50840670  0.14974829  0.48017289     0.03500
H85         H  0.51016898  0.14621234  0.05655239     0.08600
H86         H  0.50697011  0.14571831  0.45498588     0.07400
N87         N  0.66319734  0.15563873  0.43343126    -0.26900
N88         N  0.67967623  0.16064928  0.44941643    -0.34800
C89         C  0.69537671  0.17044565  0.42944174     0.01400
C90         C  0.68850573  0.17175872  0.39937495     0.07400
C91         C  0.66800494  0.16222953  0.40281886    -0.05700
H92         H  0.71072113  0.17728796  0.43693779     0.08100
H93         H  0.65739535  0.16069642  0.38471176     0.09300
Cu94       Cu  0.68224512  0.15941002  0.99961903     0.44200
Cu95       Cu  0.63518416  0.14136280  0.45465568     0.42000
Cu96       Cu  0.63553451  0.13905834  0.04221773     0.43900
N97         N  0.68002223  0.16176722  0.04893293    -0.34300
N98         N  0.66298653  0.15520017  0.06453675    -0.28600
C99         C  0.66683932  0.16119277  0.09542410    -0.04700
C100        C  0.68731175  0.17190568  0.09939982     0.07500
C101        C  0.69513149  0.17187098  0.06943562     0.01300
H102        H  0.65557358  0.15810561  0.11348504     0.09000
H103        H  0.71070559  0.17949381  0.06260860     0.08100
N104        N  0.61044182  0.12355088  0.01373172    -0.35800
N105        N  0.60962486  0.12615891  0.48266498    -0.28000
C106        C  0.59078863  0.11507166  0.47225449    -0.03200
C107        C  0.57936558  0.10429143  0.99732873     0.05400
C108        C  0.59158020  0.11175531  0.02399643     0.03500
H109        H  0.58659760  0.11284181  0.44711198     0.08600
H110        H  0.58710261  0.10889315  0.04911333     0.07400
C111        C  0.46785615  0.01347402  0.99810456     0.02600
C112        C  0.45350111  0.01936766  0.99880985     0.02600
C113        C  0.45992374  0.03974859  0.99986911    -0.17900
C114        C  0.48027617  0.05429165  0.00011028     0.02600
C115        C  0.49452915  0.04832593  0.99897736     0.02600
C116        C  0.48814507  0.02802768  0.99798216    -0.17900
H117        H  0.49912129  0.02349781  0.99724651     0.04600
H118        H  0.44900130  0.04434379  0.00041981     0.04600
O119        O  0.25312673  0.56024510  0.28178536    -0.72600
O120        O  0.22948938  0.57718442  0.21163197    -0.73600
O121        O  0.22861197  0.57696022  0.28031427    -0.62200
O122        O  0.25422820  0.56047556  0.21354450    -0.70600
O123        O  0.22754743  0.53013055  0.21369931    -0.70200
O124        O  0.20167729  0.54677956  0.27987648    -0.61400
O125        O  0.20291558  0.54682314  0.21160867    -0.73900
O126        O  0.22622314  0.53005512  0.28242565    -0.72700
Cu127      Cu  0.24228781  0.56977399  0.24680068     1.04600
Cu128      Cu  0.21366654  0.53739229  0.24685459     1.04300
C129        C  0.24336258  0.54260054  0.29349826     0.93600
C130        C  0.21241423  0.56459221  0.20036382     0.92700
C131        C  0.21118417  0.56445670  0.29089271     0.84900
C132        C  0.24494969  0.54267576  0.20303288     0.91200
O133        O  0.15904649  0.81124566  0.21109830    -0.72600
O134        O  0.19624485  0.84868005  0.27828051    -0.73600
O135        O  0.19514334  0.84855007  0.20942652    -0.62200
O136        O  0.15996649  0.81134324  0.27964872    -0.70600
O137        O  0.17671829  0.79553227  0.27817841    -0.70200
O138        O  0.21245738  0.83328811  0.20906548    -0.61400
O139        O  0.21298527  0.83287713  0.27733344    -0.73900
O140        O  0.17619424  0.79582287  0.21017017    -0.72700
Cu141      Cu  0.17700709  0.83051376  0.24466736     1.04600
Cu142      Cu  0.19518349  0.81386796  0.24364326     1.04300
C143        C  0.16173263  0.79754873  0.20013198     0.93600
C144        C  0.21053123  0.84665851  0.28849634     0.92700
C145        C  0.20940621  0.84680657  0.19818375     0.84900
C146        C  0.16264518  0.79743937  0.28981594     0.91200
N147        N  0.15551481  0.58460612  0.43165842    -0.26900
N148        N  0.17237708  0.59101829  0.44732872    -0.34800
C149        C  0.18603687  0.59145523  0.42708449     0.01400
C150        C  0.17738704  0.58497036  0.39713803     0.07400
C151        C  0.15800509  0.58077855  0.40099170    -0.05700
H152        H  0.20066915  0.59478057  0.43444073     0.08100
H153        H  0.14628199  0.57457841  0.38325761     0.09300
Cu154      Cu  0.17527335  0.59514395  0.49663610     0.44200
Cu155      Cu  0.12914139  0.57859354  0.45349334     0.42000
Cu156      Cu  0.12891783  0.57752407  0.03971110     0.43900
N157        N  0.17257594  0.59111305  0.04455568    -0.34300
N158        N  0.15553700  0.58382592  0.06049404    -0.28600
C159        C  0.15803803  0.57955876  0.09091996    -0.04700
C160        C  0.17760903  0.58447204  0.09441280     0.07500
C161        C  0.18645193  0.59190135  0.06461403     0.01300
H162        H  0.14624323  0.57259156  0.10875673     0.09000
H163        H  0.20140245  0.59605087  0.05735551     0.08100
N164        N  0.10373049  0.57043898  0.01336426    -0.35800
N165        N  0.10434283  0.57129988  0.48158002    -0.28000
C166        C  0.08605480  0.56617543  0.47133113    -0.03200
C167        C  0.07376219  0.56204961  0.49801318     0.05400
C168        C  0.08560438  0.56547071  0.02460500     0.03500
H169        H  0.08198902  0.56527984  0.44621612     0.08600
H170        H  0.08191235  0.56489878  0.04990702     0.07400
N171        N  0.09786323  0.72170353  0.06279360    -0.26900
N172        N  0.10378463  0.73825519  0.04609333    -0.34800
C173        C  0.11365470  0.75393402  0.06560848     0.01400
C174        C  0.11403522  0.74699039  0.09620603     0.07400
C175        C  0.10395594  0.72644101  0.09349650    -0.05700
H176        H  0.12095366  0.76927975  0.05759700     0.08100
H177        H  0.10148371  0.71574371  0.11228123     0.09300
Cu178      Cu  0.10198523  0.73986059  0.49599774     0.44200
Cu179      Cu  0.08246457  0.69377503  0.04197065     0.42000
Cu180      Cu  0.08305614  0.69419753  0.45299665     0.43900
N181        N  0.10557710  0.73863938  0.44693525    -0.34300
N182        N  0.09946126  0.72195872  0.43095193    -0.28600
C183        C  0.10569096  0.72649444  0.40006236    -0.04700
C184        C  0.11601503  0.74704454  0.39652487     0.07500
C185        C  0.11568138  0.75418519  0.42681449     0.01300
H186        H  0.10295083  0.71566489  0.38162956     0.09000
H187        H  0.12297055  0.76958057  0.43413850     0.08100
N188        N  0.06568059  0.66912337  0.48145106    -0.35800
N189        N  0.06633448  0.66853986  0.01412526    -0.28000
C190        C  0.05299337  0.65016934  0.02491414    -0.03200
C191        C  0.04402193  0.63826583  0.49724546     0.05400
C192        C  0.05332757  0.65056862  0.47084232     0.03500
H193        H  0.04931993  0.64621278  0.05009680     0.08600
H194        H  0.05135615  0.64640870  0.44569903     0.07400
N195        N  0.84870143  0.34367795  0.06042336    -0.26900
N196        N  0.84371180  0.32721033  0.04448193    -0.34800
C197        C  0.83448379  0.31157252  0.06484360     0.01400
C198        C  0.83343166  0.31853230  0.09497511     0.07400
C199        C  0.84253447  0.33895646  0.09124256    -0.05700
H200        H  0.82774329  0.29618258  0.05769331     0.08100
H201        H  0.84397985  0.34953470  0.10930908     0.09300
Cu202      Cu  0.84571471  0.32733241  0.49682328     0.44200
Cu203      Cu  0.86245348  0.37153410  0.03871766     0.42000
Cu204      Cu  0.86025691  0.37299705  0.45324146     0.43900
N205        N  0.84148190  0.32860937  0.44792017    -0.34300
N206        N  0.84591755  0.34508752  0.43204870    -0.28600
C207        C  0.83954935  0.34039431  0.40146804    -0.04700
C208        C  0.83086177  0.31999099  0.39792041     0.07500
C209        C  0.83231905  0.31305587  0.42794859     0.01300
H210        H  0.84102079  0.35103394  0.38325851     0.09000
H211        H  0.82632897  0.29772578  0.43528332     0.08100
N212        N  0.87640551  0.39831768  0.48101623    -0.35800
N213        N  0.87719547  0.39741885  0.01138201    -0.28000
C214        C  0.88904876  0.41592880  0.02252211    -0.03200
C215        C  0.89712686  0.42927140  0.49674926     0.05400
C216        C  0.88790251  0.41718192  0.47041198     0.03500
H217        H  0.89191444  0.41956175  0.04781913     0.08600
H218        H  0.89000594  0.42153103  0.44523781     0.07400
N219        N  0.78408611  0.47518913  0.44271514    -0.26900
N220        N  0.76685037  0.46787090  0.45799814    -0.34800
C221        C  0.75334783  0.46742995  0.43757246     0.01400
C222        C  0.76256119  0.47504095  0.40806206     0.07400
C223        C  0.78206786  0.47978431  0.41218837    -0.05700
H224        H  0.73819890  0.46287121  0.44422197     0.08100
H225        H  0.79401574  0.48637380  0.39456740     0.09300
Cu226      Cu  0.76316809  0.46162833  0.50697386     0.44200
Cu227      Cu  0.80982776  0.48007882  0.46497433     0.42000
Cu228      Cu  0.80937088  0.47839927  0.04978750     0.43900
N229        N  0.76638471  0.46619046  0.05590719    -0.34300
N230        N  0.78305885  0.47240883  0.07198361    -0.28600
C231        C  0.78004609  0.47533619  0.10291402    -0.04700
C232        C  0.76045584  0.47060926  0.10643528     0.07500
C233        C  0.75227883  0.46488205  0.07606067     0.01300
H234        H  0.79146810  0.48115240  0.12116732     0.09000
H235        H  0.73761026  0.46138166  0.06855964     0.08100
N236        N  0.83384068  0.48442094  0.02165772    -0.35800
N237        N  0.83434963  0.48657643  0.49269058    -0.28000
C238        C  0.85306970  0.49388159  0.48201125    -0.03200
C239        C  0.86538915  0.49762177  0.50829597     0.05400
C240        C  0.85249685  0.49150780  0.03215551     0.03500
H241        H  0.85734440  0.49649276  0.45681333     0.08600
H242        H  0.85681865  0.49492026  0.05710389     0.07400
C243        C  0.99079292  0.53969450  0.49810519     0.02600
C244        C  0.98510376  0.55419740  0.49817873     0.02600
C245        C  0.96477689  0.54807276  0.49873657    -0.17900
C246        C  0.95008409  0.52780917  0.49974978     0.02600
C247        C  0.95580289  0.51337474  0.49902778     0.02600
C248        C  0.97606193  0.51947358  0.49849802    -0.17900
H249        H  0.98041263  0.50836534  0.49786437     0.04600
H250        H  0.96038237  0.55914440  0.49939546     0.04600
O251        O  0.46553376  0.28544704  0.28617349    -0.72600
O252        O  0.48630544  0.26296726  0.22054974    -0.73600
O253        O  0.48418618  0.26261397  0.28844731    -0.62200
O254        O  0.46746018  0.28569027  0.21770245    -0.70600
O255        O  0.49693314  0.31353296  0.21892244    -0.70200
O256        O  0.51368484  0.29040959  0.29001720    -0.61400
O257        O  0.51579786  0.29080243  0.22141302    -0.73900
O258        O  0.49504653  0.31328108  0.28677520    -0.72700
Cu259      Cu  0.47484033  0.27322043  0.25314532     1.04600
Cu260      Cu  0.50640968  0.30296616  0.25431804     1.04300
C261        C  0.47708272  0.30297889  0.29685125     0.93600
C262        C  0.50431164  0.27331245  0.21058571     0.92700
C263        C  0.50153615  0.27282915  0.30050501     0.84900
C264        C  0.47948655  0.30325829  0.20714608     0.91200
O265        O  0.70685081  0.47545571  0.22335732    -0.72600
O266        O  0.68113601  0.49190959  0.29087281    -0.73600
O267        O  0.68008183  0.48969952  0.22262205    -0.62200
O268        O  0.70774208  0.47737954  0.29191839    -0.70600
O269        O  0.73333370  0.50832750  0.28958721    -0.70200
O270        O  0.70594102  0.52050256  0.21935921    -0.61400
O271        O  0.70676158  0.52280423  0.28774173    -0.73900
O272        O  0.73261433  0.50635531  0.22161636    -0.72700
Cu273      Cu  0.69305293  0.48251847  0.25732436     1.04600
Cu274      Cu  0.72052050  0.51556919  0.25449238     1.04300
C275        C  0.72387546  0.48841449  0.21182556     0.93600
C276        C  0.68995641  0.51002528  0.30003733     0.92700
C277        C  0.68876448  0.50701134  0.20971374     0.84900
C278        C  0.72483822  0.49082341  0.30185621     0.91200
O279        O  0.44449023  0.74877400  0.21537059    -0.72600
O280        O  0.42915353  0.77448022  0.28448155    -0.73600
O281        O  0.42886041  0.77455936  0.21580892    -0.62200
O282        O  0.44445486  0.74860322  0.28347546    -0.70600
O283        O  0.47512511  0.77478713  0.28337443    -0.70200
O284        O  0.45946346  0.80083458  0.21526779    -0.61400
O285        O  0.45980428  0.80068075  0.28344532    -0.73900
O286        O  0.47509166  0.77505322  0.21470960    -0.72700
Cu287      Cu  0.43567033  0.76071175  0.24976191     1.04600
Cu288      Cu  0.46844808  0.78873837  0.24914290     1.04300
C289        C  0.46229403  0.75783329  0.20424799     0.93600
C290        C  0.44212193  0.79164907  0.29497720     0.92700
C291        C  0.44159292  0.79182569  0.20490908     0.84900
C292        C  0.46218882  0.75758542  0.29430912     0.91200
N293        N  0.30024098  0.52311733  0.43347767    -0.26900
N294        N  0.28389237  0.51774969  0.45045433    -0.34800
C295        C  0.27010861  0.51764898  0.43100653     0.01400
C296        C  0.27824203  0.52346080  0.40033314     0.07400
C297        C  0.29732336  0.52663762  0.40282321    -0.05700
H298        H  0.25570343  0.51480643  0.43908859     0.08100
H299        H  0.30852804  0.53166892  0.38400615     0.09300
Cu300      Cu  0.28225418  0.51399767  0.50008499     0.44200
Cu301      Cu  0.32645092  0.52725981  0.45318940     0.42000
Cu302      Cu  0.32726658  0.52877279  0.03993096     0.43900
N303        N  0.28413091  0.51560633  0.04822098    -0.34300
N304        N  0.30139149  0.52306068  0.06302251    -0.28600
C305        C  0.29920707  0.52710244  0.09371420    -0.04700
C306        C  0.27956738  0.52190504  0.09845011     0.07500
C307        C  0.27048408  0.51465972  0.06901680     0.01300
H308        H  0.31120996  0.53396178  0.11089755     0.09000
H309        H  0.25547408  0.51041913  0.06235796     0.08100
N310        N  0.34999194  0.53039404  0.01202321    -0.35800
N311        N  0.35035921  0.53023353  0.47947458    -0.28000
C312        C  0.36637441  0.52989948  0.46835675    -0.03200
C313        C  0.37788331  0.53079718  0.49448730     0.05400
C314        C  0.36711660  0.53250921  0.02285483     0.03500
H315        H  0.36877408  0.52810115  0.44322672     0.08600
H316        H  0.37133916  0.53441947  0.04797586     0.07400
N317        N  0.48341200  0.70131127  0.06607306    -0.26900
N318        N  0.48736001  0.71724477  0.04895331    -0.34800
C319        C  0.48709785  0.73071478  0.06858675     0.01400
C320        C  0.48262264  0.72286523  0.09956149     0.07400
C321        C  0.48029953  0.70414724  0.09703570    -0.05700
H322        H  0.48877901  0.74466739  0.06049400     0.08100
H323        H  0.47611205  0.69317707  0.11609128     0.09300
Cu324      Cu  0.48979298  0.71890355  0.99906239     0.44200
Cu325      Cu  0.48091549  0.67592229  0.04594607     0.42000
Cu326      Cu  0.47810484  0.67317125  0.45341777     0.43900
N327        N  0.48562026  0.71467530  0.44871761    -0.34300
N328        N  0.48070697  0.69843701  0.43219306    -0.28600
C329        C  0.47688819  0.70113151  0.40155895    -0.04700
C330        C  0.47960549  0.72003684  0.39884325     0.07500
C331        C  0.48521073  0.72818074  0.42919384     0.01300
H332        H  0.47217057  0.69003224  0.38291016     0.09000
H333        H  0.48773788  0.74246135  0.43700224     0.08100
N334        N  0.47559318  0.65016132  0.48198043    -0.35800
N335        N  0.47786252  0.65225318  0.01903505    -0.28000
C336        C  0.47750564  0.63586891  0.02999941    -0.03200
C337        C  0.47520837  0.62384516  0.00390603     0.05400
C338        C  0.47436145  0.63331685  0.47170183     0.03500
H339        H  0.47922255  0.63324422  0.05507515     0.08600
H340        H  0.47444653  0.62971113  0.44657342     0.07400
N341        N  0.45536416  0.35773264  0.06850549    -0.26900
N342        N  0.45066543  0.34137208  0.05251646    -0.34800
C343        C  0.45177958  0.32840767  0.07242234     0.01400
C344        C  0.45760392  0.33703773  0.10247756     0.07400
C345        C  0.45964029  0.35563618  0.09913436    -0.05700
H346        H  0.44962626  0.31421177  0.06499437     0.08100
H347        H  0.46426130  0.36701032  0.11728158     0.09300
Cu348      Cu  0.44599492  0.33845115  0.00349655     0.44200
Cu349      Cu  0.45735098  0.38260543  0.04691952     0.42000
Cu350      Cu  0.45757623  0.38272208  0.45643918     0.43900
N351        N  0.44970697  0.34083596  0.45260136    -0.34300
N352        N  0.45406719  0.35702871  0.43590524    -0.28600
C353        C  0.45717030  0.35435565  0.40488907    -0.04700
C354        C  0.45457993  0.33553420  0.40188974     0.07500
C355        C  0.44989009  0.32745045  0.43271300     0.01300
H356        H  0.46162151  0.36556411  0.38617437     0.09000
H357        H  0.44803639  0.31341215  0.44067608     0.08100
N358        N  0.46146572  0.40633744  0.48435227    -0.35800
N359        N  0.45861612  0.40525558  0.01902158    -0.28000
C360        C  0.45967595  0.42194593  0.02968041    -0.03200
C361        C  0.45997346  0.43301104  0.00323156     0.05400
C362        C  0.46262402  0.42328114  0.47439360     0.03500
H363        H  0.46049087  0.42577431  0.05486524     0.08600
H364        H  0.46159796  0.42683855  0.44948221     0.07400
N365        N  0.63459903  0.53258121  0.43867591    -0.26900
N366        N  0.65131177  0.53792309  0.45415424    -0.34800
C367        C  0.66450513  0.53769283  0.43361689     0.01400
C368        C  0.65555516  0.53160901  0.40387991     0.07400
C369        C  0.63659169  0.52849317  0.40789317    -0.05700
H370        H  0.67892831  0.54015850  0.44047951     0.08100
H371        H  0.62487977  0.52296366  0.39014724     0.09300
Cu372      Cu  0.65366352  0.54027006  0.50364844     0.44200
Cu373      Cu  0.60947722  0.52938027  0.46132213     0.42000
Cu374      Cu  0.60647605  0.52266061  0.04734972     0.43900
N375        N  0.64806667  0.52993467  0.05134462    -0.34300
N376        N  0.63139696  0.52407939  0.06766079    -0.28600
C377        C  0.63367973  0.51939432  0.09800420    -0.04700
C378        C  0.65276811  0.52260756  0.10084085     0.07500
C379        C  0.66136586  0.52917435  0.07068164     0.01300
H380        H  0.62230658  0.51409589  0.11658619     0.09000
H381        H  0.67596312  0.53248893  0.06284122     0.08100
N382        N  0.58497771  0.52408498  0.02015326    -0.35800
N383        N  0.58687231  0.52751216  0.49008974    -0.28000
C384        C  0.57118290  0.52871190  0.48027131    -0.03200
C385        C  0.55981611  0.52720250  0.50703944     0.05400
C386        C  0.56841674  0.52341371  0.03105141     0.03500
H387        H  0.56828928  0.53052166  0.45536198     0.08600
H388        H  0.56426476  0.52204322  0.05625344     0.07400
C389        C  0.45017812  0.52779508  0.49924801     0.02600
C390        C  0.46846450  0.54599149  0.49907008     0.02600
C391        C  0.48636346  0.54604070  0.50084279    -0.17900
C392        C  0.48638144  0.52816605  0.50272803     0.02600
C393        C  0.46801738  0.50992169  0.50249372     0.02600
C394        C  0.45010407  0.50990933  0.50120107    -0.17900
H395        H  0.43605140  0.49589697  0.50094231     0.04600
H396        H  0.50034838  0.56010938  0.50137301     0.04600
C397        C  0.53806588  0.53839003  0.48241833    -0.21000
C398        C  0.54136994  0.52815803  0.50730884    -0.09000
C399        C  0.52550485  0.51706477  0.02965400     0.29900
C400        C  0.50795256  0.51767166  0.02869449    -0.21000
C401        C  0.50566561  0.52886793  0.50500381    -0.09000
C402        C  0.52044407  0.53880377  0.48127199     0.29900
F403        F  0.51756647  0.54837909  0.45638167    -0.19500
H404        H  0.54912219  0.54607407  0.46365354     0.18200
H405        H  0.49709448  0.51063358  0.04795822     0.18200
F406        F  0.52799465  0.50708029  0.05428645    -0.19500
C407        C  0.47347808  0.46696469  0.47537479    -0.21000
C408        C  0.46120185  0.45252676  0.00312840    -0.09000
C409        C  0.45405993  0.45852080  0.02937902     0.29900
C410        C  0.45569612  0.47714832  0.02900915    -0.21000
C411        C  0.46452879  0.49011183  0.00267235    -0.09000
C412        C  0.47433994  0.48522338  0.47545026     0.29900
F413        F  0.48196455  0.49748428  0.44936108    -0.19500
H414        H  0.47914302  0.46308041  0.45455596     0.18200
H415        H  0.45025137  0.48158642  0.04946505     0.18200
F416        F  0.44505691  0.44628847  0.05508881    -0.19500
C417        C  0.46649841  0.57341774  0.03056635    -0.21000
C418        C  0.47142375  0.56705601  0.00238116    -0.09000
C419        C  0.47676407  0.57780072  0.47154872     0.29900
C420        C  0.47772123  0.59611293  0.47156835    -0.21000
C421        C  0.47413345  0.60435914  0.00391800    -0.09000
C422        C  0.46786289  0.59191570  0.03148200     0.29900
F423        F  0.46242497  0.59720260  0.05903906    -0.19500
H424        H  0.46146955  0.56394278  0.05183988     0.18200
H425        H  0.48391451  0.60571092  0.45060992     0.18200
F426        F  0.48305621  0.57231175  0.44513966    -0.19500
C427        C  0.42665405  0.53555668  0.97259825    -0.21000
C428        C  0.43107684  0.52728983  0.49723119    -0.09000
C429        C  0.41887942  0.52259545  0.52458155     0.29900
C430        C  0.40161183  0.52364108  0.52332549    -0.21000
C431        C  0.39609742  0.52930812  0.49469569    -0.09000
C432        C  0.40824447  0.53359695  0.46701805     0.29900
F433        F  0.40449940  0.54148177  0.94255646    -0.19500
H434        H  0.43605294  0.53926292  0.95136134     0.18200
H435        H  0.39259038  0.51995976  0.54494983     0.18200
F436        F  0.42404445  0.51764016  0.55281841    -0.19500
C437        C  0.48752499  0.74995123  0.36601481    -0.21000
C438        C  0.47582266  0.72928281  0.37078205    -0.09000
C439        C  0.46002600  0.71793459  0.34965650     0.29900
C440        C  0.45588983  0.72724572  0.32458925    -0.21000
C441        C  0.46751207  0.74795856  0.31991093    -0.09000
C442        C  0.48355851  0.75924050  0.34070501     0.29900
F443        F  0.49497758  0.77930944  0.33739828    -0.19500
H444        H  0.49975189  0.75897099  0.38205295     0.18200
H445        H  0.44341975  0.71822397  0.30897006     0.18200
F446        F  0.44796155  0.69801966  0.35410315    -0.19500
C447        C  0.46270413  0.71944956  0.14900011    -0.21000
C448        C  0.47848448  0.73159801  0.12791534    -0.09000
C449        C  0.48953876  0.75221764  0.13320527     0.29900
C450        C  0.48447622  0.76054223  0.15855027    -0.21000
C451        C  0.46812932  0.74853317  0.17881244    -0.09000
C452        C  0.45742665  0.72780073  0.17407814     0.29900
F453        F  0.44188952  0.71557143  0.19364458    -0.19500
H454        H  0.45400760  0.70351934  0.14541879     0.18200
H455        H  0.49309519  0.77650396  0.16182481     0.18200
F456        F  0.50533153  0.76433199  0.11400324    -0.19500
C457        C  0.69103610  0.52668580  0.16087320    -0.21000
C458        C  0.67919573  0.51135451  0.18283079    -0.09000
C459        C  0.65847520  0.50005149  0.17811336     0.29900
C460        C  0.64992266  0.50403175  0.15173098    -0.21000
C461        C  0.66186083  0.51908526  0.12938088    -0.09000
C462        C  0.68254364  0.53047719  0.13431856     0.29900
F463        F  0.69460334  0.54554760  0.11388364    -0.19500
H464        H  0.70701577  0.53558179  0.16392266     0.18200
H465        H  0.63397778  0.49503137  0.14842676     0.18200
F466        F  0.64645185  0.48527095  0.19904454    -0.19500
C467        C  0.68342174  0.53968390  0.36605246    -0.21000
C468        C  0.66370531  0.52663383  0.37580324    -0.09000
C469        C  0.65242245  0.50840198  0.35992415     0.29900
C470        C  0.66097116  0.50319508  0.33506191    -0.21000
C471        C  0.68081450  0.51616669  0.32535050    -0.09000
C472        C  0.69189067  0.53468134  0.34082917     0.29900
F473        F  0.71107290  0.54777981  0.33232183    -0.19500
H474        H  0.69231620  0.55377721  0.37813585     0.18200
H475        H  0.65209251  0.48887099  0.32366299     0.18200
F476        F  0.63349377  0.49518095  0.36952817    -0.19500
C477        C  0.47280569  0.33971728  0.35012800    -0.21000
C478        C  0.45878286  0.32702748  0.37325004    -0.09000
C479        C  0.44965610  0.30629579  0.36944318     0.29900
C480        C  0.45511977  0.29854987  0.34376131    -0.21000
C481        C  0.46988762  0.31128280  0.32166697    -0.09000
C482        C  0.47839747  0.33197118  0.32464596     0.29900
F483        F  0.49220227  0.34473518  0.30303590    -0.19500
H484        H  0.48001731  0.35571390  0.35232787     0.18200
H485        H  0.44825526  0.28256143  0.34178938     0.18200
F486        F  0.43546608  0.29346364  0.39047300    -0.19500
C487        C  0.48268596  0.33255846  0.17748988    -0.21000
C488        C  0.47322933  0.31181543  0.18118601    -0.09000
C489        C  0.45806644  0.29951326  0.15964949     0.29900
C490        C  0.45285032  0.30789590  0.13455897    -0.21000
C491        C  0.46245680  0.32864024  0.13060550    -0.09000
C492        C  0.47732358  0.34095141  0.15259177     0.29900
F493        F  0.48734467  0.36105041  0.14934196    -0.19500
H494        H  0.49435109  0.34233801  0.19385191     0.18200
H495        H  0.44131024  0.29809028  0.11805520     0.18200
F496        F  0.44871956  0.27938805  0.16209445    -0.19500
C497        C  0.75505519  0.49928347  0.33427743    -0.21000
C498        C  0.73476931  0.48617988  0.32791850    -0.09000
C499        C  0.72408308  0.46895489  0.34722541     0.29900
C500        C  0.73338326  0.46536270  0.37284723    -0.21000
C501        C  0.75353600  0.47859615  0.37948194    -0.09000
C502        C  0.76442949  0.49550402  0.35965717     0.29900
F503        F  0.78385205  0.50888119  0.36563560    -0.19500
H504        H  0.76367127  0.51260780  0.31976502     0.18200
H505        H  0.72474824  0.45218420  0.38766788     0.18200
F506        F  0.70449507  0.45580390  0.34204841    -0.19500
C507        C  0.72183236  0.46656170  0.16649282    -0.21000
C508        C  0.73344748  0.48286977  0.18650584    -0.09000
C509        C  0.75414241  0.49432642  0.18109644     0.29900
C510        C  0.76287018  0.48979914  0.15568587    -0.21000
C511        C  0.75116713  0.47399204  0.13489809    -0.09000
C512        C  0.73054711  0.46221684  0.14074497     0.29900
F513        F  0.71880169  0.44647193  0.12170130    -0.19500
H514        H  0.70588838  0.45749100  0.17020165     0.18200
H515        H  0.77875362  0.49913092  0.15165878     0.18200
F516        F  0.76599037  0.50998863  0.20023737    -0.19500
C517        C  0.89830624  0.51694455  0.47968296    -0.21000
C518        C  0.88739109  0.50649321  0.50743557    -0.05400
C519        C  0.89708212  0.50342633  0.03271037     0.29900
C520        C  0.91771560  0.51184918  0.03147538    -0.21000
C521        C  0.92885932  0.52183440  0.50309102    -0.09000
C522        C  0.91881654  0.52457573  0.47752483     0.29900
F523        F  0.92868702  0.53384224  0.44990986    -0.19500
H524        H  0.89100443  0.51916043  0.45936271     0.18200
H525        H  0.92535217  0.51073936  0.05241176     0.18200
F526        F  0.88730321  0.49400634  0.06027078    -0.19500
C527        C  0.92462041  0.45856195  0.02404636    -0.21000
C528        C  0.91206767  0.45085702  0.49689855    -0.09000
C529        C  0.91261848  0.46372169  0.47247799     0.29900
C530        C  0.92696427  0.48399857  0.47315763    -0.21000
C531        C  0.94085058  0.49182299  0.49824013    -0.09000
C532        C  0.93898553  0.47883403  0.02511504     0.29900
F533        F  0.95090492  0.48616037  0.05129883    -0.19500
H534        H  0.92369195  0.44911719  0.04395902     0.18200
H535        H  0.92722135  0.49365495  0.45410845     0.18200
F536        F  0.89903437  0.45691385  0.44843038    -0.19500
C537        C  0.02760479  0.60439157  0.02509583    -0.21000
C538        C  0.02887072  0.61676471  0.49732468    -0.09000
C539        C  0.01510331  0.60820727  0.47204591     0.29900
C540        C  0.00078224  0.58791048  0.47273696    -0.21000
C541        C  0.00006182  0.57577558  0.49834961    -0.09000
C542        C  0.01308075  0.58416548  0.02587284     0.29900
F543        F  0.01239446  0.57286084  0.05135677    -0.19500
H544        H  0.03821133  0.61045717  0.04458600     0.18200
H545        H  0.99031644  0.58157293  0.45308245     0.18200
F546        F  0.01503392  0.61949865  0.44714718    -0.19500
C547        C  0.04415933  0.56170704  0.97342032    -0.21000
C548        C  0.05239945  0.55599085  0.49805370    -0.09000
C549        C  0.03958845  0.54486295  0.52377635     0.29900
C550        C  0.01956268  0.53946614  0.52336760    -0.21000
C551        C  0.01195859  0.54516445  0.49758154    -0.09000
C552        C  0.02418374  0.55646670  0.97357291     0.29900
F553        F  0.01703636  0.56193064  0.94824618    -0.19500
H554        H  0.05357356  0.57040540  0.95336896     0.18200
H555        H  0.00996551  0.53097879  0.54341512     0.18200
F556        F  0.04616980  0.53871669  0.54897706    -0.19500
C557        C  0.13407213  0.75262303  0.14603914    -0.21000
C558        C  0.12478602  0.75917100  0.12447568    -0.09000
C559        C  0.12666402  0.77783670  0.12933992     0.29900
C560        C  0.13819804  0.78995736  0.15460794    -0.21000
C561        C  0.14827803  0.78384016  0.17523942    -0.09000
C562        C  0.14582267  0.76485666  0.17109740     0.29900
F563        F  0.15475294  0.75809301  0.19122851    -0.19500
H564        H  0.13277674  0.73827916  0.14288716     0.18200
H565        H  0.13968497  0.80440672  0.15747014     0.18200
F566        F  0.11727763  0.78436699  0.10979153    -0.19500
C567        C  0.13588927  0.75266037  0.34602820    -0.21000
C568        C  0.12651925  0.75910195  0.36760883    -0.09000
C569        C  0.12808789  0.77761503  0.36216360     0.29900
C570        C  0.13941671  0.78971121  0.33633072    -0.21000
C571        C  0.14958792  0.78373554  0.31560074    -0.09000
C572        C  0.14743988  0.76488263  0.32034304     0.29900
F573        F  0.15646499  0.75823190  0.30021312    -0.19500
H574        H  0.13480563  0.73841887  0.34963854     0.18200
H575        H  0.14061894  0.80402980  0.33304314     0.18200
F576        F  0.11856484  0.78401217  0.38167379    -0.19500
C577        C  0.28307626  0.54227186  0.14683007    -0.21000
C578        C  0.27089647  0.52613536  0.12685600    -0.09000
C579        C  0.25032970  0.51483880  0.13336493     0.29900
C580        C  0.24212017  0.52004519  0.15867973    -0.21000
C581        C  0.25417589  0.53664507  0.17786147    -0.09000
C582        C  0.27484226  0.54757978  0.17200845     0.29900
F583        F  0.28712600  0.56343129  0.19047870    -0.19500
H584        H  0.29894606  0.55123687  0.14237851     0.18200
H585        H  0.22619199  0.51130031  0.16278858     0.18200
F586        F  0.23810294  0.49869320  0.11543499    -0.19500
C587        C  0.24865889  0.51673020  0.36746021    -0.21000
C588        C  0.26933755  0.52777857  0.37227254    -0.09000
C589        C  0.28128353  0.54344761  0.35075125     0.29900
C590        C  0.27268871  0.54794018  0.32512680    -0.21000
C591        C  0.25205133  0.53690977  0.32017255    -0.09000
C592        C  0.24005062  0.52111871  0.34154634     0.29900
F593        F  0.21997995  0.51033343  0.33809330    -0.19500
H594        H  0.23913832  0.50466347  0.38379591     0.18200
H595        H  0.28226277  0.56023336  0.30919401     0.18200
F596        F  0.30119432  0.55509078  0.35519320    -0.19500
C597        C  0.17356770  0.56525898  0.34769316    -0.21000
C598        C  0.18602452  0.58057844  0.36882554    -0.09000
C599        C  0.20670808  0.59105108  0.36320072     0.29900
C600        C  0.21467809  0.58602216  0.33729605    -0.21000
C601        C  0.20227097  0.57035148  0.31673396    -0.09000
C602        C  0.18156811  0.56007670  0.32199631     0.29900
F603        F  0.16902760  0.54505214  0.30234309    -0.19500
H604        H  0.15761329  0.55686887  0.35150142     0.18200
H605        H  0.23067147  0.59414890  0.33376982     0.18200
F606        F  0.21928588  0.60627296  0.38247186    -0.19500
C607        C  0.20555883  0.59360652  0.13257161    -0.21000
C608        C  0.18630780  0.57976713  0.12213977    -0.09000
C609        C  0.17563038  0.56121791  0.13786584     0.29900
C610        C  0.18419481  0.55656117  0.16334121    -0.21000
C611        C  0.20350463  0.57032829  0.17395155    -0.09000
C612        C  0.21404838  0.58909947  0.15850794     0.29900
F613        F  0.23259010  0.60305818  0.16812920    -0.19500
H614        H  0.21396440  0.60800183  0.12075868     0.18200
H615        H  0.17568145  0.54200255  0.17457901     0.18200
F616        F  0.15721832  0.54722360  0.12775945    -0.19500
C617        C  0.54875690  0.07640055  0.02287131    -0.21000
C618        C  0.55759043  0.09017985  0.99738551    -0.09000
C619        C  0.54414095  0.09198052  0.47534303     0.29900
C620        C  0.52378616  0.07781707  0.47614828    -0.21000
C621        C  0.51620303  0.06291440  0.99857475    -0.09000
C622        C  0.52829268  0.06282261  0.02341122     0.29900
F623        F  0.52023185  0.04971406  0.04839560    -0.19500
H624        H  0.55774312  0.07592332  0.04225273     0.18200
H625        H  0.51428559  0.07808984  0.45747109     0.18200
F626        F  0.55127368  0.10608884  0.45172031    -0.19500
C627        C  0.53257566  0.26903169  0.13970063    -0.21000
C628        C  0.52300210  0.24828909  0.13614718    -0.09000
C629        C  0.50820589  0.23591491  0.15866759     0.29900
C630        C  0.50257287  0.24422215  0.18322119    -0.21000
C631        C  0.51168405  0.26494340  0.18610891    -0.09000
C632        C  0.52710114  0.27733599  0.16452472     0.29900
F633        F  0.53619501  0.29744735  0.16631712    -0.19500
H634        H  0.54407364  0.27887792  0.12279076     0.18200
H635        H  0.49076168  0.23438159  0.19970267     0.18200
F636        F  0.49827459  0.21582097  0.15598756    -0.19500
C637        C  0.52224902  0.27697019  0.34870736    -0.21000
C638        C  0.50742790  0.26432283  0.32707825    -0.09000
C639        C  0.49803279  0.24359645  0.33163758     0.29900
C640        C  0.50325650  0.23579145  0.35758923    -0.21000
C641        C  0.51774319  0.24843372  0.37969433    -0.09000
C642        C  0.52730592  0.26916648  0.37490017     0.29900
F643        F  0.54173320  0.28194892  0.39518039    -0.19500
H644        H  0.52970045  0.29297419  0.34569712     0.18200
H645        H  0.49558152  0.21979629  0.36074539     0.18200
F646        F  0.48389328  0.23082618  0.31092633    -0.19500
C647        C  0.48724895  0.10426936  0.47972542    -0.21000
C648        C  0.49977872  0.11664568  0.00427721    -0.09000
C649        C  0.50430275  0.10741512  0.02939731     0.29900
C650        C  0.49761441  0.08708058  0.02817531    -0.21000
C651        C  0.48636185  0.07558492  0.00199562    -0.09000
C652        C  0.48084516  0.08400874  0.47869815     0.29900
F653        F  0.47102801  0.07333630  0.45231627    -0.19500
H654        H  0.48383774  0.11085227  0.45959367     0.18200
H655        H  0.50142232  0.08029814  0.04752658     0.18200
F656        F  0.51571849  0.11804474  0.05464154    -0.19500
C657        C  0.21906091  0.87222879  0.33129703    -0.21000
C658        C  0.22413119  0.86012147  0.31371319    -0.09000
C659        C  0.24199982  0.86068546  0.32116601     0.29900
C660        C  0.25415432  0.87274253  0.34606128    -0.21000
C661        C  0.24860803  0.88415848  0.36438157    -0.09000
C662        C  0.23106898  0.88401379  0.35653045     0.29900
F663        F  0.22557726  0.89534601  0.37317983    -0.19500
H664        H  0.20552242  0.87224964  0.32603392     0.18200
H665        H  0.26757146  0.87258792  0.35179831     0.18200
F666        F  0.24769726  0.84945558  0.30470858    -0.19500
C667        C  0.25385897  0.87727016  0.14299223    -0.21000
C668        C  0.24571907  0.88395971  0.11942225    -0.09000
C669        C  0.22583337  0.87920266  0.12302136     0.29900
C670        C  0.21430409  0.86759641  0.14920030    -0.21000
C671        C  0.22222613  0.86025389  0.17199989    -0.09000
C672        C  0.24223097  0.86542087  0.16890417     0.29900
F673        F  0.25060322  0.85913102  0.19103136    -0.19500
H674        H  0.26910360  0.88071314  0.14091439     0.18200
H675        H  0.19896742  0.86390710  0.15117763     0.18200
F676        F  0.21751796  0.88586125  0.10144411    -0.19500
C677        C  0.42401393  0.99098602  0.97206141    -0.21000
C678        C  0.43181248  0.00460512  0.99750113    -0.09000
C679        C  0.41873465  0.00368640  0.52468247     0.29900
C680        C  0.39829977  0.99010753  0.52284483    -0.21000
C681        C  0.39061533  0.97624913  0.99488305    -0.09000
C682        C  0.40366714  0.97685296  0.97078766     0.29900
F683        F  0.39695565  0.96349807  0.94643965    -0.19500
H684        H  0.43375165  0.99127350  0.95315455     0.18200
H685        H  0.38863983  0.99044900  0.54126570     0.18200
F686        F  0.42583583  0.01655698  0.54972825    -0.19500
C687        C  0.44105584  0.83038719  0.14961314    -0.21000
C688        C  0.42466082  0.81839862  0.12997862    -0.09000
C689        C  0.41328471  0.79783455  0.13629739     0.29900
C690        C  0.41864225  0.78940913  0.16115871    -0.21000
C691        C  0.43556295  0.80124858  0.17992707    -0.09000
C692        C  0.44659497  0.82193234  0.17420930     0.29900
F693        F  0.46276791  0.83401374  0.19223877    -0.19500
H694        H  0.45008855  0.84625608  0.14515528     0.18200
H695        H  0.40977821  0.77348192  0.16519624     0.18200
F696        F  0.39698894  0.78585358  0.11843527    -0.19500
C697        C  0.42097915  0.78908110  0.34226093    -0.21000
C698        C  0.43681922  0.80097802  0.32109616    -0.09000
C699        C  0.44787943  0.82168249  0.32592407     0.29900
C700        C  0.44342556  0.83013258  0.35184088    -0.21000
C701        C  0.42803816  0.81816901  0.37370860    -0.09000
C702        C  0.41665783  0.79751128  0.36840382     0.29900
F703        F  0.40124397  0.78540820  0.38824406    -0.19500
H704        H  0.41218373  0.77312117  0.33903041     0.18200
H705        H  0.45246507  0.84604744  0.35525351     0.18200
F706        F  0.46301554  0.83382352  0.30562696    -0.19500
C707        C  0.44571982  0.95939709  0.02269952    -0.21000
C708        C  0.45188110  0.95201529  0.99711817    -0.09000
C709        C  0.46525933  0.96536576  0.47793932     0.29900
C710        C  0.46967484  0.98507533  0.47771299    -0.21000
C711        C  0.46221884  0.99227303  0.99794050    -0.09000
C712        C  0.45087692  0.97932791  0.02321607     0.29900
F713        F  0.44506479  0.98603391  0.04866733    -0.19500
H714        H  0.43675803  0.94971311  0.04230842     0.18200
H715        H  0.47843978  0.99483964  0.45800373     0.18200
F716        F  0.47270535  0.95933283  0.45387100    -0.19500
C717        C  0.81103337  0.27769022  0.15849463    -0.21000
C718        C  0.79803576  0.28215751  0.17491135    -0.09000
C719        C  0.79750924  0.29922777  0.16552677     0.29900
C720        C  0.80954746  0.31130231  0.14017114    -0.21000
C721        C  0.82202784  0.30645305  0.12326007    -0.09000
C722        C  0.82280381  0.28961030  0.13274324     0.29900
F723        F  0.83513020  0.28483149  0.11738840    -0.19500
H724        H  0.81187190  0.26474916  0.16522248     0.18200
H725        H  0.80866391  0.32417304  0.13310218     0.18200
F726        F  0.78532144  0.30427880  0.18063829    -0.19500
C727        C  0.80925285  0.27805008  0.33724591    -0.21000
C728        C  0.79839686  0.28355564  0.31719910    -0.09000
C729        C  0.79933915  0.30176171  0.32280822     0.29900
C730        C  0.81042621  0.31381008  0.34848638    -0.21000
C731        C  0.82058109  0.30788712  0.36930206    -0.09000
C732        C  0.82015313  0.29000213  0.36315386     0.29900
F733        F  0.83037847  0.28410393  0.38199121    -0.19500
H734        H  0.80890561  0.26419856  0.33339566     0.18200
H735        H  0.81054394  0.32751613  0.35266479     0.18200
F736        F  0.78947995  0.30793126  0.30362519    -0.19500
C737        C  0.69406156  0.19323645  0.35117443    -0.21000
C738        C  0.70067906  0.18333065  0.37125366    -0.09000
C739        C  0.71928142  0.18528452  0.36494848     0.29900
C740        C  0.73113442  0.19724867  0.33936910    -0.21000
C741        C  0.72479411  0.20766522  0.31986934    -0.09000
C742        C  0.70600444  0.20539445  0.32585095     0.29900
F743        F  0.69908739  0.21484299  0.30722685    -0.19500
H744        H  0.67982758  0.19202339  0.35559735     0.18200
H745        H  0.74547194  0.19863693  0.33519580     0.18200
F746        F  0.72594142  0.17547086  0.38322725    -0.19500
C747        C  0.70496368  0.20443761  0.17367254    -0.21000
C748        C  0.72351327  0.20611029  0.17904807    -0.09000
C749        C  0.72923056  0.19521942  0.15946718     0.29900
C750        C  0.71708430  0.18376383  0.13416610    -0.21000
C751        C  0.69884552  0.18255286  0.12824121    -0.09000
C752        C  0.69263450  0.19264988  0.14869723     0.29900
F753        F  0.67522006  0.19206199  0.14353679    -0.19500
H754        H  0.70010888  0.21253017  0.18851984     0.18200
H755        H  0.72207730  0.17597231  0.11886427     0.18200
F756        F  0.74690979  0.19623028  0.16381911    -0.19500
O757        O  0.75242280  0.21757597  0.78122130    -0.72600
O758        O  0.78824901  0.25474251  0.71185007    -0.73600
O759        O  0.78863188  0.25491253  0.78040510    -0.62200
O760        O  0.75202042  0.21752230  0.71258265    -0.70600
O761        O  0.73497164  0.23302355  0.71302684    -0.70200
O762        O  0.77160638  0.27044059  0.78027198    -0.61400
O763        O  0.77123488  0.27028098  0.71208440    -0.73900
O764        O  0.73529348  0.23301993  0.78120345    -0.72700
Cu765      Cu  0.77091592  0.23563044  0.74650564     1.04600
Cu766      Cu  0.75268597  0.25221534  0.74667524     1.04300
C767        C  0.73813589  0.21938276  0.79213568     0.93600
C768        C  0.78548389  0.26845972  0.70104435     0.92700
C769        C  0.78597586  0.26872890  0.79090263     0.84900
C770        C  0.73771526  0.21938618  0.70202234     0.91200
N771        N  0.42256481  0.84808218  0.56809648    -0.26900
N772        N  0.41635052  0.83140156  0.55202155    -0.34800
C773        C  0.41491785  0.81729642  0.57238713     0.01400
C774        C  0.42066643  0.82551705  0.60274568     0.07400
C775        C  0.42537031  0.84506296  0.59908498    -0.05700
H776        H  0.41171276  0.80271879  0.56495611     0.08100
H777        H  0.43151674  0.85658502  0.61713615     0.09300
Cu778      Cu  0.41435631  0.82960735  0.50227763     0.44200
Cu779      Cu  0.43006173  0.87498388  0.54647190     0.42000
Cu780      Cu  0.43244908  0.87589806  0.95458751     0.43900
N781        N  0.42145521  0.83306309  0.95155334    -0.34300
N782        N  0.42747779  0.84948416  0.93444055    -0.28600
C783        C  0.43122775  0.84634943  0.90401261    -0.04700
C784        C  0.42744109  0.82699705  0.90188966     0.07500
C785        C  0.42131092  0.81911676  0.93266941     0.01300
H786        H  0.43687450  0.85756762  0.88515122     0.09000
H787        H  0.41809118  0.80473223  0.94146824     0.08100
N788        N  0.43822219  0.90045517  0.98195624    -0.35800
N789        N  0.43856016  0.90031502  0.51895249    -0.28000
C790        C  0.44352963  0.91848953  0.52956136    -0.03200
C791        C  0.44824265  0.93111151  0.50314649     0.05400
C792        C  0.44379377  0.91881683  0.97099149     0.03500
H793        H  0.44371463  0.92220152  0.55470965     0.08600
H794        H  0.44556594  0.92293658  0.94573632     0.07400
N795        N  0.28547214  0.91066157  0.92503444    -0.26900
N796        N  0.26869188  0.90471631  0.94110645    -0.34800
C797        C  0.25326254  0.89513324  0.92103971     0.01400
C798        C  0.26052515  0.89485581  0.89075100     0.07400
C799        C  0.28105273  0.90473314  0.89415365    -0.05700
H800        H  0.23781161  0.88788811  0.92848110     0.08100
H801        H  0.29191876  0.90714495  0.87572818     0.09300
Cu802      Cu  0.26615852  0.90724676  0.49268070     0.44200
Cu803      Cu  0.31326035  0.92598169  0.94696046     0.42000
Cu804      Cu  0.31104881  0.92812438  0.53780111     0.43900
N805        N  0.26653658  0.90505282  0.54239100    -0.34300
N806        N  0.28308382  0.91208206  0.55917102    -0.28600
C807        C  0.27833853  0.90617339  0.59014674    -0.04700
C808        C  0.25775998  0.89502771  0.59298393     0.07500
C809        C  0.25082660  0.89464513  0.56215651     0.01300
H810        H  0.28906977  0.90935502  0.60899798     0.09000
H811        H  0.23553458  0.88639475  0.55421283     0.08100
N812        N  0.33692848  0.94316666  0.51032304    -0.35800
N813        N  0.33805535  0.94171671  0.97634281    -0.28000
C814        C  0.35714154  0.95319632  0.96669897    -0.03200
C815        C  0.36858731  0.96237333  0.49584820     0.05400
C816        C  0.35536453  0.95518700  0.52163730     0.03500
H817        H  0.36193282  0.95567045  0.94173422     0.08600
H818        H  0.35885490  0.95836182  0.54692361     0.07400
N819        N  0.52381709  0.21759449  0.57256036    -0.26900
N820        N  0.52903526  0.23420881  0.55651198    -0.34800
C821        C  0.52851803  0.24734235  0.57654259     0.01400
C822        C  0.52244968  0.23852324  0.60666083     0.07400
C823        C  0.51970962  0.21967204  0.60331639    -0.05700
H824        H  0.53089246  0.26167715  0.56908025     0.08100
H825        H  0.51437529  0.20802335  0.62143215     0.09300
Cu826      Cu  0.53248979  0.23702129  0.50716210     0.44200
Cu827      Cu  0.51978337  0.19208366  0.55070385     0.42000
Cu828      Cu  0.51900803  0.19287647  0.96205086     0.43900
N829        N  0.52736593  0.23487164  0.95722998    -0.34300
N830        N  0.52208887  0.21843999  0.94099666    -0.28600
C831        C  0.51788668  0.22089197  0.91049939    -0.04700
C832        C  0.52073651  0.23983441  0.90735304     0.07500
C833        C  0.52674263  0.24823841  0.93755076     0.01300
H834        H  0.51261274  0.20950454  0.89224705     0.09000
H835        H  0.52931408  0.26253915  0.94529674     0.08100
N836        N  0.51470519  0.16865418  0.98938204    -0.35800
N837        N  0.51387979  0.16788502  0.52262435    -0.28000
C838        C  0.50848999  0.14951537  0.53317525    -0.03200
C839        C  0.50486050  0.13742689  0.50665932     0.05400
C840        C  0.50928181  0.15041382  0.97856030     0.03500
H841        H  0.50664317  0.14522460  0.55835729     0.08600
H842        H  0.50699389  0.14628160  0.95339864     0.07400
N843        N  0.66467596  0.15468255  0.93350567    -0.26900
N844        N  0.68132582  0.16141771  0.94994808    -0.34800
C845        C  0.69692427  0.17151081  0.92983771     0.01400
C846        C  0.68977487  0.17120106  0.89921854     0.07400
C847        C  0.66924269  0.16044908  0.90249492    -0.05700
H848        H  0.71229794  0.17951232  0.93741533     0.08100
H849        H  0.65840454  0.15742926  0.88390444     0.09300
Cu850      Cu  0.68074711  0.15737595  0.49869092     0.44200
Cu851      Cu  0.63661140  0.13907414  0.95446780     0.42000
Cu852      Cu  0.63509726  0.13880029  0.54249063     0.43900
N853        N  0.67949941  0.16002062  0.54804692    -0.34300
N854        N  0.66274130  0.15398400  0.56418131    -0.28600
C855        C  0.66708577  0.16037746  0.59478803    -0.04700
C856        C  0.68760722  0.17087274  0.59800505     0.07500
C857        C  0.69494841  0.17022907  0.56791516     0.01300
H858        H  0.65612617  0.15791719  0.61306497     0.09000
H859        H  0.71041355  0.17768037  0.56047722     0.08100
N860        N  0.60971551  0.12494182  0.51448660    -0.35800
N861        N  0.61076569  0.12377402  0.98183125    -0.28000
C862        C  0.59209100  0.11223183  0.97097700    -0.03200
C863        C  0.57842939  0.10637332  0.49882315     0.05400
C864        C  0.59099425  0.11297346  0.52513170     0.03500
H865        H  0.58821945  0.10942676  0.94575144     0.08600
H866        H  0.58689904  0.10919316  0.55024830     0.07400
C867        C  0.46799442  0.01326909  0.50197483     0.02600
C868        C  0.45334871  0.01878374  0.50218214     0.02600
C869        C  0.45936548  0.03906436  0.50244063    -0.17900
C870        C  0.47956818  0.05388260  0.50247644     0.02600
C871        C  0.49415514  0.04836491  0.50161876     0.02600
C872        C  0.48818244  0.02814714  0.50135901    -0.17900
H873        H  0.49939765  0.02393227  0.50079976     0.04600
H874        H  0.44822362  0.04337699  0.50261861     0.04600
O875        O  0.25159155  0.55724173  0.78330252    -0.72600
O876        O  0.22944804  0.57490480  0.71188210    -0.73600
O877        O  0.22728403  0.57431652  0.78049841    -0.62200
O878        O  0.25388402  0.55785837  0.71545724    -0.70600
O879        O  0.22716169  0.52757810  0.71460026    -0.70200
O880        O  0.20028542  0.54424274  0.77931966    -0.61400
O881        O  0.20269437  0.54465513  0.71104442    -0.73900
O882        O  0.22450887  0.52713637  0.78313553    -0.72700
Cu883      Cu  0.24145926  0.56712984  0.74781249     1.04600
Cu884      Cu  0.21271493  0.53484896  0.74691979     1.04300
C885        C  0.24161170  0.53949455  0.79451550     0.93600
C886        C  0.21247061  0.56249142  0.70011299     0.92700
C887        C  0.20967842  0.56189178  0.79051191     0.84900
C888        C  0.24484277  0.54007149  0.70489938     0.91200
O889        O  0.15739705  0.81131779  0.71129284    -0.72600
O890        O  0.19489501  0.84822483  0.77846401    -0.73600
O891        O  0.19410276  0.84812173  0.70988475    -0.62200
O892        O  0.15804217  0.81135281  0.77995032    -0.70600
O893        O  0.17433676  0.79508135  0.77879034    -0.70200
O894        O  0.21058941  0.83202399  0.70942463    -0.61400
O895        O  0.21117918  0.83194675  0.77748146    -0.73900
O896        O  0.17373291  0.79506005  0.71076358    -0.72700
Cu897      Cu  0.17552571  0.83032292  0.74494128     1.04600
Cu898      Cu  0.19301086  0.81297087  0.74409673     1.04300
C899        C  0.15961843  0.79729542  0.70050768     0.93600
C900        C  0.20910978  0.84601593  0.78840118     0.92700
C901        C  0.20814233  0.84596878  0.69873826     0.84900
C902        C  0.16040449  0.79727343  0.79027555     0.91200
N903        N  0.15407249  0.58257213  0.93093001    -0.26900
N904        N  0.17139343  0.59020093  0.94568191    -0.34800
C905        C  0.18496923  0.59093217  0.92484376     0.01400
C906        C  0.17571845  0.58325688  0.89563758     0.07400
C907        C  0.15612926  0.57810820  0.90044893    -0.05700
H908        H  0.20003996  0.59526784  0.93129746     0.08100
H909        H  0.14403699  0.57089574  0.88348340     0.09300
Cu910      Cu  0.17499633  0.59533442  0.99491800     0.44200
Cu911      Cu  0.12781263  0.57631152  0.95340541     0.42000
Cu912      Cu  0.12923205  0.57744046  0.54057983     0.43900
N913        N  0.17279784  0.59079419  0.54604345    -0.34300
N914        N  0.15580417  0.58374118  0.56198797    -0.28600
C915        C  0.15832301  0.57952250  0.59245715    -0.04700
C916        C  0.17782720  0.58402422  0.59584128     0.07500
C917        C  0.18660097  0.59134030  0.56595716     0.01300
H918        H  0.14654086  0.57284706  0.61034100     0.09000
H919        H  0.20144259  0.59522214  0.55848742     0.08100
N920        N  0.10429212  0.57072543  0.51344199    -0.35800
N921        N  0.10336415  0.57008838  0.98152119    -0.28000
C922        C  0.08502692  0.56497306  0.97157473    -0.03200
C923        C  0.07318818  0.56180391  0.99850647     0.05400
C924        C  0.08592578  0.56516888  0.52432733     0.03500
H925        H  0.08060334  0.56342255  0.94656398     0.08600
H926        H  0.08193003  0.56387412  0.54958951     0.07400
N927        N  0.09536082  0.72226102  0.56270019    -0.26900
N928        N  0.10274814  0.73889638  0.54564694    -0.34800
C929        C  0.11266598  0.75450964  0.56525470     0.01400
C930        C  0.11158458  0.74745171  0.59630248     0.07400
C931        C  0.10055369  0.72688490  0.59378184    -0.05700
H932        H  0.12110898  0.76982307  0.55707169     0.08100
H933        H  0.09699091  0.71609116  0.61292160     0.09300
Cu934      Cu  0.10090929  0.73913083  0.99672597     0.44200
Cu935      Cu  0.07976350  0.69436786  0.54164111     0.42000
Cu936      Cu  0.08389932  0.69356627  0.95364730     0.43900
N937        N  0.10354685  0.73796455  0.94733641    -0.34300
N938        N  0.09842070  0.72144036  0.93148779    -0.28600
C939        C  0.10429517  0.72613885  0.90049498    -0.04700
C940        C  0.11337626  0.74661682  0.89667415     0.07500
C941        C  0.11262608  0.75355546  0.92696635     0.01300
H942        H  0.10235242  0.71547089  0.88224588     0.09000
H943        H  0.11924692  0.76890853  0.93422875     0.08100
N944        N  0.06679929  0.66843796  0.98222083    -0.35800
N945        N  0.06461213  0.66913568  0.51332429    -0.28000
C946        C  0.05165240  0.65055207  0.52376563    -0.03200
C947        C  0.04446421  0.63789884  0.99860129     0.05400
C948        C  0.05367126  0.65000219  0.97192424     0.03500
H949        H  0.04767096  0.64641700  0.54882448     0.08600
H950        H  0.05101363  0.64581501  0.94681546     0.07400
N951        N  0.85029482  0.34464388  0.56279774    -0.26900
N952        N  0.84451796  0.32812569  0.54651338    -0.34800
C953        C  0.83515068  0.31245634  0.56667905     0.01400
C954        C  0.83482742  0.31942841  0.59709863     0.07400
C955        C  0.84449561  0.33991813  0.59377294    -0.05700
H956        H  0.82773816  0.29707637  0.55921601     0.08100
H957        H  0.84648449  0.35052815  0.61216741     0.09300
Cu958      Cu  0.84624228  0.32656689  0.99473591     0.44200
Cu959      Cu  0.86414974  0.37241699  0.54094599     0.42000
Cu960      Cu  0.86248020  0.37273061  0.95088218     0.43900
N961        N  0.84366888  0.32826966  0.94518857    -0.34300
N962        N  0.84861462  0.34486840  0.92921871    -0.28600
C963        C  0.84269173  0.34031193  0.89837262    -0.04700
C964        C  0.83379776  0.31988359  0.89471764     0.07500
C965        C  0.83470360  0.31280951  0.92495708     0.01300
H966        H  0.84437245  0.35102600  0.88014205     0.09000
H967        H  0.82821356  0.29740852  0.93228300     0.08100
N968        N  0.87721661  0.39797641  0.97949780    -0.35800
N969        N  0.87790911  0.39794847  0.51273923    -0.28000
C970        C  0.89039583  0.41648420  0.52312045    -0.03200
C971        C  0.89697121  0.42890761  0.99647010     0.05400
C972        C  0.88909454  0.41692912  0.96954685     0.03500
H973        H  0.89443900  0.42027057  0.54810657     0.08600
H974        H  0.89240283  0.42142014  0.94450229     0.07400
N975        N  0.78331928  0.47167263  0.94039524    -0.26900
N976        N  0.76703667  0.46675104  0.95721413    -0.34800
C977        C  0.75354563  0.46707574  0.93780188     0.01400
C978        C  0.76168135  0.47262865  0.90717482     0.07400
C979        C  0.78061284  0.47536487  0.90964794    -0.05700
H980        H  0.73928821  0.46460956  0.94592911     0.08100
H981        H  0.79180308  0.48017420  0.89084760     0.09300
Cu982      Cu  0.76458340  0.46309609  0.00655564     0.44200
Cu983      Cu  0.80906936  0.47555221  0.96145574     0.42000
Cu984      Cu  0.80837546  0.47597099  0.55194682     0.43900
N985        N  0.76463372  0.46252292  0.55682883    -0.34300
N986        N  0.78116945  0.46822198  0.57314607    -0.28600
C987        C  0.77789491  0.47037301  0.60431602    -0.04700
C988        C  0.75836009  0.46576562  0.60785313     0.07500
C989        C  0.75039561  0.46077121  0.57721603     0.01300
H990        H  0.78925341  0.47602490  0.62267132     0.09000
H991        H  0.73591676  0.45786709  0.56972702     0.08100
N992        N  0.83405027  0.48534609  0.52450058    -0.35800
N993        N  0.83367869  0.48306380  0.98986489    -0.28000
C994        C  0.85223333  0.48919899  0.97935995    -0.03200
C995        C  0.86478097  0.49481725  0.00574340     0.05400
C996        C  0.85268439  0.49194526  0.53491435     0.03500
H997        H  0.85632002  0.49002934  0.95419080     0.08600
H998        H  0.85663825  0.49315186  0.56009688     0.07400
C999        C  0.99044895  0.53971664  0.00020051     0.02600
C1000       C  0.98453880  0.55407006  0.00018535     0.02600
C1001       C  0.96415600  0.54767619  0.00028887    -0.17900
C1002       C  0.94970135  0.52733854  0.00094051     0.02600
C1003       C  0.95562685  0.51308034  0.00073568     0.02600
C1004       C  0.97590982  0.51940746  0.00066425    -0.17900
H1005       H  0.98042296  0.50841941  0.00025168     0.04600
H1006       H  0.95951805  0.55856540  0.00068328     0.04600
O1007       O  0.46376161  0.28593918  0.78813711    -0.72600
O1008       O  0.48189213  0.26217222  0.72077904    -0.73600
O1009       O  0.48166406  0.26242357  0.78895336    -0.62200
O1010       O  0.46384968  0.28562918  0.71980306    -0.70600
O1011       O  0.49370002  0.31299504  0.71948452    -0.70200
O1012       O  0.51146706  0.28986871  0.78902440    -0.61400
O1013       O  0.51173187  0.28957292  0.72037457    -0.73900
O1014       O  0.49358008  0.31337826  0.78737047    -0.72700
Cu1015     Cu  0.47175380  0.27308314  0.75442774     1.04600
Cu1016     Cu  0.50367279  0.30239237  0.75402447     1.04300
C1017       C  0.47581279  0.30345033  0.79838607     0.93600
C1018       C  0.49968048  0.27216768  0.70977444     0.92700
C1019       C  0.49928241  0.27246883  0.80013659     0.84900
C1020       C  0.47595868  0.30303346  0.70871178     0.91200
O1021       O  0.70603660  0.47316340  0.72423310    -0.72600
O1022       O  0.68027324  0.49064082  0.78970604    -0.73600
O1023       O  0.67986101  0.48800145  0.72143083    -0.62200
O1024       O  0.70648575  0.47580500  0.79277496    -0.70600
O1025       O  0.73252517  0.50651447  0.78957855    -0.70200
O1026       O  0.70583329  0.51872362  0.71849315    -0.61400
O1027       O  0.70627470  0.52134043  0.78692687    -0.73900
O1028       O  0.73196612  0.50394049  0.72164137    -0.72700
Cu1029     Cu  0.69225765  0.48082331  0.75717596     1.04600
Cu1030     Cu  0.72002036  0.51370394  0.75406853     1.04300
C1031       C  0.72306320  0.48586172  0.71242135     0.93600
C1032       C  0.68928401  0.50873840  0.79892098     0.92700
C1033       C  0.68876897  0.50528799  0.70838925     0.84900
C1034       C  0.72368351  0.48918804  0.80247330     0.91200
O1035       O  0.44433914  0.74717686  0.71470909    -0.72600
O1036       O  0.43175524  0.77332012  0.78600075    -0.73600
O1037       O  0.42945734  0.77332219  0.71753095    -0.62200
O1038       O  0.44669741  0.74716573  0.78245271    -0.70600
O1039       O  0.47741053  0.77323204  0.78058642    -0.70200
O1040       O  0.46025347  0.79923849  0.71499326    -0.61400
O1041       O  0.46239053  0.79953311  0.78303764    -0.73900
O1042       O  0.47516211  0.77304144  0.71222181    -0.72700
Cu1043     Cu  0.43699383  0.75937482  0.75027694     1.04600
Cu1044     Cu  0.46989531  0.78716875  0.74762512     1.04300
C1045       C  0.46177949  0.75590785  0.70228544     0.93600
C1046       C  0.44499706  0.79056150  0.79572177     0.92700
C1047       C  0.44215008  0.79037229  0.70581183     0.84900
C1048       C  0.46476102  0.75602203  0.79183826     0.91200
N1049       N  0.29846471  0.51839768  0.93271646    -0.26900
N1050       N  0.28228719  0.51363021  0.94972470    -0.34800
C1051       C  0.26867202  0.51382490  0.93032261     0.01400
C1052       C  0.27662181  0.51910003  0.89945019     0.07400
C1053       C  0.29552239  0.52169118  0.90192445    -0.05700
H1054       H  0.25453554  0.51158779  0.93864308     0.08100
H1055       H  0.30665511  0.52620644  0.88311896     0.09300
Cu1056     Cu  0.28059294  0.51057278  0.99927172     0.44200
Cu1057     Cu  0.32466909  0.52272687  0.95302184     0.42000
Cu1058     Cu  0.32878663  0.52954023  0.54040066     0.43900
N1059       N  0.28581635  0.51701516  0.54958065    -0.34300
N1060       N  0.30300562  0.52357717  0.56429430    -0.28600
C1061       C  0.30078664  0.52631019  0.59570262    -0.04700
C1062       C  0.28118310  0.52104476  0.60102143     0.07500
C1063       C  0.27217409  0.51523933  0.57121257     0.01300
H1064       H  0.31271688  0.53231618  0.61308596     0.09000
H1065       H  0.25718998  0.51141001  0.56514654     0.08100
N1066       N  0.35120009  0.53135102  0.51126153    -0.35800
N1067       N  0.34905318  0.52784011  0.98046044    -0.28000
C1068       C  0.36563088  0.52824169  0.97038042    -0.03200
C1069       C  0.37760543  0.53119296  0.99693521     0.05400
C1070       C  0.36772827  0.53181087  0.52122258     0.03500
H1071       H  0.36824131  0.52568058  0.94573549     0.08600
H1072       H  0.37167402  0.53228178  0.54630427     0.07400
N1073       N  0.47932497  0.69746697  0.56342326    -0.26900
N1074       N  0.48514564  0.71408438  0.54700176    -0.34800
C1075       C  0.48526775  0.72770445  0.56659719     0.01400
C1076       C  0.47917113  0.71928331  0.59693350     0.07400
C1077       C  0.47540923  0.70002278  0.59406976    -0.05700
H1078       H  0.48840036  0.74224455  0.55875686     0.08100
H1079       H  0.46987557  0.68861330  0.61264057     0.09300
Cu1080     Cu  0.48940643  0.71670125  0.49786718     0.44200
Cu1081     Cu  0.47616876  0.67220192  0.54208231     0.42000
Cu1082     Cu  0.47663184  0.67323841  0.95863780     0.43900
N1083       N  0.48632281  0.71536377  0.94954218    -0.34300
N1084       N  0.48065703  0.69835555  0.93485617    -0.28600
C1085       C  0.47778810  0.70031926  0.90339909    -0.04700
C1086       C  0.48195657  0.71956824  0.89800581     0.07500
C1087       C  0.48739971  0.72868063  0.92778911     0.01300
H1088       H  0.47277826  0.68850950  0.88594985     0.09000
H1089       H  0.49083639  0.74357217  0.93357714     0.08100
N1090       N  0.47598579  0.65120879  0.98733324    -0.35800
N1091       N  0.47487902  0.64986421  0.51385926    -0.28000
C1092       C  0.47323422  0.63288385  0.52467964    -0.03200
C1093       C  0.47270660  0.62177748  0.49836897     0.05400
C1094       C  0.47434921  0.63415469  0.97727815     0.03500
H1095       H  0.47285410  0.62924551  0.54995024     0.08600
H1096       H  0.47260091  0.62962915  0.95232164     0.07400
N1097       N  0.45592605  0.35811301  0.56669896    -0.26900
N1098       N  0.45010379  0.34119294  0.55167262    -0.34800
C1099       C  0.44951823  0.32785526  0.57287925     0.01400
C1100       C  0.45548515  0.33693671  0.60262048     0.07400
C1101       C  0.45932049  0.35610115  0.59781605    -0.05700
H1102       H  0.44633649  0.31311499  0.56660173     0.08100
H1103       H  0.46475779  0.36793972  0.61528290     0.09300
Cu1104     Cu  0.44662796  0.33833145  0.50223808     0.44200
Cu1105     Cu  0.46056911  0.38350896  0.54359954     0.42000
Cu1106     Cu  0.45634226  0.38254616  0.95920811     0.43900
N1107       N  0.44853251  0.34091236  0.95400523    -0.34300
N1108       N  0.45312132  0.35730392  0.93776049    -0.28600
C1109       C  0.45639217  0.35495077  0.90669804    -0.04700
C1110       C  0.45356755  0.33609021  0.90328758     0.07500
C1111       C  0.44860484  0.32763037  0.93377834     0.01300
H1112       H  0.46114788  0.36637146  0.88826953     0.09000
H1113       H  0.44662829  0.31345716  0.94125377     0.08100
N1114       N  0.45831585  0.40526981  0.98715204    -0.35800
N1115       N  0.46272858  0.40653016  0.51613018    -0.28000
C1116       C  0.46469941  0.42349935  0.52728438    -0.03200
C1117       C  0.46456145  0.43458172  0.50128804     0.05400
C1118       C  0.45918836  0.42197464  0.97666848     0.03500
H1119       H  0.46612181  0.42734876  0.55252887     0.08600
H1120       H  0.45898357  0.42563170  0.95152075     0.07400
N1121       N  0.63382587  0.53130257  0.93736968    -0.26900
N1122       N  0.65006918  0.53545495  0.95334187    -0.34800
C1123       C  0.66322264  0.53502263  0.93299003     0.01400
C1124       C  0.65474124  0.53006393  0.90279669     0.07400
C1125       C  0.63607938  0.52778697  0.90636623    -0.05700
H1126       H  0.67725392  0.53662422  0.94017610     0.08100
H1127       H  0.62472688  0.52320215  0.88813392     0.09300
Cu1128     Cu  0.65178878  0.53682408  0.00285971     0.44200
Cu1129     Cu  0.60891960  0.52879209  0.95981159     0.42000
Cu1130     Cu  0.60777723  0.52401628  0.54833790     0.43900
N1131       N  0.64982511  0.53236625  0.55183458    -0.34300
N1132       N  0.63287204  0.52548607  0.56785624    -0.28600
C1133       C  0.63488427  0.51967128  0.59749284    -0.04700
C1134       C  0.65408163  0.52324395  0.60024505     0.07500
C1135       C  0.66308807  0.53124889  0.57080625     0.01300
H1136       H  0.62323185  0.51330278  0.61564102     0.09000
H1137       H  0.67791264  0.53518880  0.56314850     0.08100
N1138       N  0.58606492  0.52538470  0.52180929    -0.35800
N1139       N  0.58606813  0.52652912  0.98847478    -0.28000
C1140       C  0.57029797  0.52751731  0.97841893    -0.03200
C1141       C  0.55856390  0.52553633  0.00495433     0.05400
C1142       C  0.56975604  0.52510820  0.53300902     0.03500
H1143       H  0.56758827  0.52945975  0.95347446     0.08600
H1144       H  0.56583294  0.52404424  0.55828598     0.07400
C1145       C  0.45068887  0.52973219  0.00280303     0.02600
C1146       C  0.46950978  0.54731395  0.00168561     0.02600
C1147       C  0.48677730  0.54613651  0.00125899    -0.17900
C1148       C  0.48562400  0.52764980  0.00216308     0.02600
C1149       C  0.46670340  0.51000628  0.00314668     0.02600
C1150       C  0.44944992  0.51124927  0.00377871    -0.17900
H1151       H  0.43494982  0.49773075  0.00420960     0.04600
H1152       H  0.50121535  0.55972549  0.00100713     0.04600
C1153       C  0.53628606  0.53586093  0.97952474    -0.21000
C1154       C  0.53991515  0.52617422  0.00494634    -0.09000
C1155       C  0.52674795  0.51862988  0.53156715     0.29900
C1156       C  0.50913659  0.51911636  0.53043162    -0.21000
C1157       C  0.50435413  0.52721355  0.00311370    -0.09000
C1158       C  0.51873699  0.53642587  0.97860466     0.29900
F1159       F  0.51562843  0.54564351  0.95341623    -0.19500
H1160       H  0.54709873  0.54316569  0.96031167     0.18200
H1161       H  0.49802080  0.51159067  0.54919059     0.18200
F1162       F  0.52900264  0.50814904  0.55564525    -0.19500
C1163       C  0.46959425  0.46540629  0.97640802    -0.21000
C1164       C  0.46558731  0.45396324  0.50201518    -0.09000
C1165       C  0.45844761  0.45955863  0.52880395     0.29900
C1166       C  0.45913981  0.47773407  0.52865967    -0.21000
C1167       C  0.46716407  0.49067470  0.50214585    -0.09000
C1168       C  0.47124738  0.48404046  0.97613309     0.29900
F1169       F  0.47928024  0.49609284  0.94989858    -0.19500
H1170       H  0.47516457  0.46120449  0.95585340     0.18200
H1171       H  0.45352201  0.48181079  0.54933595     0.18200
F1172       F  0.45020495  0.44729747  0.55472700    -0.19500
C1173       C  0.46227072  0.57081646  0.52521441    -0.21000
C1174       C  0.46918295  0.56516428  0.49852197    -0.09000
C1175       C  0.47784450  0.57939183  0.97497377     0.29900
C1176       C  0.47911524  0.59785341  0.97572537    -0.21000
C1177       C  0.47111094  0.60207426  0.49851545    -0.09000
C1178       C  0.46310043  0.58904812  0.52527677     0.29900
F1179       F  0.45562914  0.59356959  0.55126541    -0.19500
H1180       H  0.45623908  0.56105850  0.54606973     0.18200
H1181       H  0.48412860  0.60708477  0.95421823     0.18200
F1182       F  0.48250303  0.57339040  0.94734688    -0.19500
C1183       C  0.42561397  0.53265040  0.46844487    -0.21000
C1184       C  0.43214803  0.53034123  0.00148084    -0.09000
C1185       C  0.41998063  0.52577675  0.02887336     0.29900
C1186       C  0.40240351  0.52627498  0.02725581    -0.21000
C1187       C  0.39659611  0.53122315  0.99821333    -0.09000
C1188       C  0.40903131  0.53598575  0.97084277     0.29900
F1189       F  0.40384877  0.53934316  0.43885648    -0.19500
H1190       H  0.43502147  0.53641564  0.44720850     0.18200
H1191       H  0.39321119  0.52245642  0.04871925     0.18200
F1192       F  0.42522864  0.52104226  0.05723783    -0.19500
C1193       C  0.49164702  0.74849779  0.86135875    -0.21000
C1194       C  0.47901271  0.72816704  0.86820687    -0.09000
C1195       C  0.46278620  0.71671545  0.84784871     0.29900
C1196       C  0.45864749  0.72579833  0.82240382    -0.21000
C1197       C  0.47075292  0.74634403  0.81642782    -0.09000
C1198       C  0.48775317  0.75751234  0.83549832     0.29900
F1199       F  0.50008486  0.77731697  0.83027585    -0.19500
H1200       H  0.50437177  0.75752890  0.87650503     0.18200
H1201       H  0.44561819  0.71679342  0.80783947     0.18200
F1202       F  0.45014382  0.69703766  0.85369867    -0.19500
C1203       C  0.45912245  0.71680876  0.64548431    -0.21000
C1204       C  0.47540434  0.72840638  0.62498108    -0.09000
C1205       C  0.48746001  0.74892210  0.63060419     0.29900
C1206       C  0.48308746  0.75767469  0.65606481    -0.21000
C1207       C  0.46649470  0.74621344  0.67612438    -0.09000
C1208       C  0.45455137  0.72560675  0.67069513     0.29900
F1209       F  0.43850821  0.71390839  0.68973486    -0.19500
H1210       H  0.44958516  0.70099747  0.64145364     0.18200
H1211       H  0.49255499  0.77353191  0.65975451     0.18200
F1212       F  0.50363722  0.76050786  0.61176092    -0.19500
C1213       C  0.69127354  0.52676755  0.66184852    -0.21000
C1214       C  0.67956110  0.50978412  0.68105100    -0.09000
C1215       C  0.65931964  0.49723733  0.67339875     0.29900
C1216       C  0.65107034  0.50184078  0.64731143    -0.21000
C1217       C  0.66287459  0.51873667  0.62805822    -0.09000
C1218       C  0.68310466  0.53115667  0.63549306     0.29900
F1219       F  0.69491298  0.54784321  0.61784182    -0.19500
H1220       H  0.70689730  0.53664739  0.66703881     0.18200
H1221       H  0.63548639  0.49198369  0.64182626     0.18200
F1222       F  0.64742862  0.48061468  0.69114539    -0.19500
C1223       C  0.68286969  0.53807081  0.86563170    -0.21000
C1224       C  0.66293994  0.52528435  0.87458378    -0.09000
C1225       C  0.65149854  0.50738306  0.85793393     0.29900
C1226       C  0.66007371  0.50225094  0.83301644    -0.21000
C1227       C  0.68012360  0.51496092  0.82407173    -0.09000
C1228       C  0.69139254  0.53313134  0.84040158     0.29900
F1229       F  0.71081849  0.54587205  0.83282851    -0.19500
H1230       H  0.69190027  0.55187372  0.87841394     0.18200
H1231       H  0.65105932  0.48815602  0.82102209     0.18200
F1232       F  0.63238191  0.49435967  0.86690093    -0.19500
C1233       C  0.47390522  0.34054469  0.85421945    -0.21000
C1234       C  0.45807766  0.32788945  0.87480372    -0.09000
C1235       C  0.44743692  0.30732430  0.86896768     0.29900
C1236       C  0.45293818  0.29956074  0.84344301    -0.21000
C1237       C  0.46928994  0.31210879  0.82362490    -0.09000
C1238       C  0.47960617  0.33276804  0.82896659     0.29900
F1239       F  0.49526138  0.34547166  0.80998493    -0.19500
H1240       H  0.48234862  0.35643051  0.85834765     0.18200
H1241       H  0.44469912  0.28362546  0.83974087     0.18200
F1242       F  0.43169682  0.29471624  0.88786258    -0.19500
C1243       C  0.48105995  0.33227652  0.67650493    -0.21000
C1244       C  0.46961180  0.31176420  0.68308239    -0.09000
C1245       C  0.45266550  0.29985811  0.66426251     0.29900
C1246       C  0.44790929  0.30827720  0.63857763    -0.21000
C1247       C  0.45967792  0.32868397  0.63156722    -0.09000
C1248       C  0.47613745  0.34071984  0.65114887     0.29900
F1249       F  0.48817925  0.36043607  0.64480742    -0.19500
H1250       H  0.49409124  0.34181583  0.69071460     0.18200
H1251       H  0.43510441  0.29877728  0.62389101     0.18200
F1252       F  0.44107072  0.27999257  0.66983381    -0.19500
C1253       C  0.75428975  0.49531848  0.83119255    -0.21000
C1254       C  0.73344003  0.48462717  0.82875568    -0.09000
C1255       C  0.72210569  0.46975538  0.85178557     0.29900
C1256       C  0.73150341  0.46578772  0.87676916    -0.21000
C1257       C  0.75234243  0.47642797  0.87925963    -0.09000
C1258       C  0.76372078  0.49122025  0.85607764     0.29900
F1259       F  0.78384958  0.50228641  0.85806948    -0.19500
H1260       H  0.76332474  0.50687753  0.81376198     0.18200
H1261       H  0.72239515  0.45434864  0.89430481     0.18200
F1262       F  0.70191148  0.45945992  0.85083430    -0.19500
C1263       C  0.72049752  0.46296690  0.66840052    -0.21000
C1264       C  0.73235101  0.47978751  0.68735229    -0.09000
C1265       C  0.75295088  0.49117342  0.68107201     0.29900
C1266       C  0.76134458  0.48603775  0.65593362    -0.21000
C1267       C  0.74939896  0.46969694  0.63621060    -0.09000
C1268       C  0.72887540  0.45803934  0.64284768     0.29900
F1269       F  0.71691732  0.44188476  0.62471816    -0.19500
H1270       H  0.70461151  0.45393828  0.67274909     0.18200
H1271       H  0.77715845  0.49533045  0.65120699     0.18200
F1272       F  0.76502820  0.50737087  0.69904344    -0.19500
C1273       C  0.89765571  0.51348133  0.97707050    -0.21000
C1274       C  0.88674743  0.50400090  0.00531477    -0.05400
C1275       C  0.89772445  0.50434129  0.53346708     0.29900
C1276       C  0.91823503  0.51193053  0.53116064    -0.21000
C1277       C  0.92840294  0.52097553  0.00310377    -0.09000
C1278       C  0.91830636  0.52195447  0.97597713     0.29900
F1279       F  0.92831552  0.53027591  0.94801830    -0.19500
H1280       H  0.89024436  0.51434121  0.95567756     0.18200
H1281       H  0.92581457  0.50964281  0.55104044     0.18200
F1282       F  0.88805817  0.49424021  0.56066343    -0.19500
C1283       C  0.92606439  0.45879432  0.52191914    -0.21000
C1284       C  0.91184904  0.45054654  0.99742731    -0.09000
C1285       C  0.91364206  0.46337759  0.97196541     0.29900
C1286       C  0.92806863  0.48361312  0.97304399    -0.21000
C1287       C  0.94079082  0.49149356  0.99957659    -0.09000
C1288       C  0.94033711  0.47905934  0.52259409     0.29900
F1289       F  0.95344811  0.48627381  0.54732725    -0.19500
H1290       H  0.92614051  0.44929509  0.54091399     0.18200
H1291       H  0.92927194  0.49321683  0.95316882     0.18200
F1292       F  0.90116630  0.45658376  0.94640732    -0.19500
C1293       C  0.02787124  0.60463260  0.52325082    -0.21000
C1294       C  0.02869375  0.61658195  0.99919877    -0.09000
C1295       C  0.01453953  0.60822300  0.97440140     0.29900
C1296       C  0.99996426  0.58798640  0.97527026    -0.21000
C1297       C  0.99933914  0.57572583  0.00062807    -0.09000
C1298       C  0.01362795  0.58431446  0.52379847     0.29900
F1299       F  0.01293091  0.57305838  0.54936570    -0.19500
H1300       H  0.03825399  0.61085096  0.54301854     0.18200
H1301       H  0.98932909  0.58176639  0.95582337     0.18200
F1302       F  0.01443952  0.61963015  0.94971545    -0.19500
C1303       C  0.04456975  0.56125307  0.47187779    -0.21000
C1304       C  0.05196078  0.55600193  0.99901862    -0.09000
C1305       C  0.03926370  0.54463150  0.02464854     0.29900
C1306       C  0.01928465  0.53934053  0.02469301    -0.21000
C1307       C  0.01164952  0.54539583  0.99944183    -0.09000
C1308       C  0.02455017  0.55589176  0.47158352     0.29900
F1309       F  0.01742519  0.56097061  0.44575127    -0.19500
H1310       H  0.05398857  0.56974512  0.45170679     0.18200
H1311       H  0.00973099  0.53058905  0.04460750     0.18200
F1312       F  0.04591725  0.53808391  0.04919900    -0.19500
C1313       C  0.13053440  0.75226738  0.64715630    -0.21000
C1314       C  0.12227768  0.75946857  0.62473088    -0.09000
C1315       C  0.12534650  0.77868687  0.62869352     0.29900
C1316       C  0.13698273  0.79064484  0.65401967    -0.21000
C1317       C  0.14603319  0.78382081  0.67554246    -0.09000
C1318       C  0.14244987  0.76435655  0.67221445     0.29900
F1319       F  0.15045124  0.75699885  0.69312934    -0.19500
H1320       H  0.12835835  0.73751656  0.64463580     0.18200
H1321       H  0.13940067  0.80551044  0.65620959     0.18200
F1322       F  0.11708300  0.78594189  0.60812956    -0.19500
C1323       C  0.13339436  0.75250065  0.84633541    -0.21000
C1324       C  0.12387633  0.75882807  0.86781192    -0.09000
C1325       C  0.12537825  0.77732136  0.86229390     0.29900
C1326       C  0.13682325  0.78949412  0.83652931    -0.21000
C1327       C  0.14713938  0.78358911  0.81595801    -0.09000
C1328       C  0.14499159  0.76474552  0.82075425     0.29900
F1329       F  0.15410524  0.75811318  0.80078714    -0.19500
H1330       H  0.13241515  0.73830904  0.84993629     0.18200
H1331       H  0.13800536  0.80379931  0.83317644     0.18200
F1332       F  0.11571768  0.78363389  0.88165817    -0.19500
C1333       C  0.28410716  0.54092351  0.64972063    -0.21000
C1334       C  0.27246587  0.52433767  0.63029122    -0.09000
C1335       C  0.25211896  0.51195110  0.63754997     0.29900
C1336       C  0.24339505  0.51676047  0.66263487    -0.21000
C1337       C  0.25474501  0.53406938  0.68078793    -0.09000
C1338       C  0.27537269  0.54585229  0.67465901     0.29900
F1339       F  0.28709192  0.56234240  0.69229039    -0.19500
H1340       H  0.29983477  0.55063190  0.64469472     0.18200
H1341       H  0.22757670  0.50724236  0.66712457     0.18200
F1342       F  0.24060201  0.49527675  0.62020669    -0.19500
C1343       C  0.24681142  0.51484548  0.86985975    -0.21000
C1344       C  0.26760626  0.52341997  0.87141325    -0.09000
C1345       C  0.27953441  0.53684593  0.84686459     0.29900
C1346       C  0.27085473  0.54177249  0.82192961    -0.21000
C1347       C  0.25017107  0.53336336  0.82059789    -0.09000
C1348       C  0.23812381  0.51966285  0.84463665     0.29900
F1349       F  0.21807007  0.51155095  0.84450099    -0.19500
H1350       H  0.23721530  0.50445558  0.88829935     0.18200
H1351       H  0.28040137  0.55232553  0.80359405     0.18200
F1352       F  0.29965729  0.54597808  0.84742167    -0.19500
C1353       C  0.17207408  0.56142226  0.84930589    -0.21000
C1354       C  0.18413096  0.57858893  0.86736439    -0.09000
C1355       C  0.20432273  0.59068853  0.85890202     0.29900
C1356       C  0.21232973  0.58542152  0.83332455    -0.21000
C1357       C  0.20045861  0.56789301  0.81588752    -0.09000
C1358       C  0.18011693  0.55600385  0.82394969     0.29900
F1359       F  0.16798017  0.53905009  0.80763808    -0.19500
H1360       H  0.15649112  0.55180245  0.85543151     0.18200
H1361       H  0.22800012  0.59491484  0.82763835     0.18200
F1362       F  0.21632581  0.60770502  0.87514132    -0.19500
C1363       C  0.20694474  0.59103122  0.63014352    -0.21000
C1364       C  0.18656900  0.57904011  0.62334068    -0.09000
C1365       C  0.17489958  0.56179169  0.64206307     0.29900
C1366       C  0.18348652  0.55666716  0.66688827    -0.21000
C1367       C  0.20384011  0.56861755  0.67385720    -0.09000
C1368       C  0.21552752  0.58601599  0.65531380     0.29900
F1369       F  0.23529258  0.59795745  0.66092661    -0.19500
H1370       H  0.21623991  0.60434195  0.61595940     0.18200
H1371       H  0.17411001  0.54318802  0.68064223     0.18200
F1372       F  0.15534887  0.54931930  0.63557350    -0.19500
C1373       C  0.54864596  0.07729624  0.52382406    -0.21000
C1374       C  0.55679594  0.09178499  0.49921585    -0.09000
C1375       C  0.54543505  0.09026234  0.97246021     0.29900
C1376       C  0.52489973  0.07673583  0.97316822    -0.21000
C1377       C  0.51572393  0.06337115  0.50080842    -0.09000
C1378       C  0.52834048  0.06319045  0.52461019     0.29900
F1379       F  0.52096609  0.04949204  0.54886769    -0.19500
H1380       H  0.55804115  0.07668087  0.54233762     0.18200
H1381       H  0.51575652  0.07696562  0.95380938     0.18200
F1382       F  0.55324202  0.10367914  0.94786056    -0.19500
C1383       C  0.52803122  0.26738909  0.63955399    -0.21000
C1384       C  0.51734573  0.24676823  0.63451064    -0.09000
C1385       C  0.50112895  0.23452122  0.65489190     0.29900
C1386       C  0.49562649  0.24289300  0.67951347    -0.21000
C1387       C  0.50622693  0.26354575  0.68442951    -0.09000
C1388       C  0.52263970  0.27575101  0.66432924     0.29900
F1389       F  0.53307463  0.29581849  0.66778614    -0.19500
H1390       H  0.54052782  0.27710292  0.62407887     0.18200
H1391       H  0.48290450  0.23318132  0.69458837     0.18200
F1392       F  0.48993868  0.21460674  0.65012740    -0.19500
C1393       C  0.52094227  0.27669587  0.84716993    -0.21000
C1394       C  0.50542489  0.26402271  0.82652600    -0.09000
C1395       C  0.49550182  0.24334572  0.83205104     0.29900
C1396       C  0.50088091  0.23562581  0.85793719    -0.21000
C1397       C  0.51603472  0.24830740  0.87909439    -0.09000
C1398       C  0.52613687  0.26897934  0.87335818     0.29900
F1399       F  0.54119868  0.28175311  0.89272772    -0.19500
H1400       H  0.52881843  0.29266617  0.84344142     0.18200
H1401       H  0.49279513  0.21967686  0.86184892     0.18200
F1402       F  0.48064180  0.23052865  0.81239360    -0.19500
C1403       C  0.48831410  0.10497877  0.97825463    -0.21000
C1404       C  0.49784187  0.11585390  0.50640753    -0.09000
C1405       C  0.50174338  0.10662029  0.53230697     0.29900
C1406       C  0.49544777  0.08638883  0.53109798    -0.21000
C1407       C  0.48512461  0.07500042  0.50424901    -0.09000
C1408       C  0.48158651  0.08464242  0.97716092     0.29900
F1409       F  0.47085568  0.07391368  0.95142145    -0.19500
H1410       H  0.48440292  0.11153727  0.95872689     0.18200
H1411       H  0.49887122  0.07961140  0.55095964     0.18200
F1412       F  0.51225126  0.11717181  0.55830347    -0.19500
C1413       C  0.21787329  0.87117561  0.83177280    -0.21000
C1414       C  0.22311717  0.85967604  0.81291858    -0.09000
C1415       C  0.24161618  0.86114104  0.81825842     0.29900
C1416       C  0.25417829  0.87334208  0.84267639    -0.21000
C1417       C  0.24843466  0.88404626  0.86246248    -0.09000
C1418       C  0.23031353  0.88314865  0.85641641     0.29900
F1419       F  0.22461044  0.89386771  0.87433363    -0.19500
H1420       H  0.20386373  0.87053432  0.82800553     0.18200
H1421       H  0.26807229  0.87382389  0.84690150     0.18200
F1422       F  0.24755858  0.85071335  0.80008598    -0.19500
C1423       C  0.25289173  0.87521663  0.64334340    -0.21000
C1424       C  0.24568641  0.88380334  0.62152893    -0.09000
C1425       C  0.22650134  0.88074253  0.62639990     0.29900
C1426       C  0.21460426  0.86884754  0.65203178    -0.21000
C1427       C  0.22145075  0.85953259  0.67302237    -0.09000
C1428       C  0.24087277  0.86306083  0.66872036     0.29900
F1429       F  0.24829829  0.85484738  0.68907450    -0.19500
H1430       H  0.26762775  0.87739193  0.64016591     0.18200
H1431       H  0.19979338  0.86652566  0.65497303     0.18200
F1432       F  0.21926499  0.88935860  0.60653626    -0.19500
C1433       C  0.42393371  0.99023415  0.47563298    -0.21000
C1434       C  0.43173913  0.00386347  0.50104644    -0.09000
C1435       C  0.41886337  0.00392922  0.02172024     0.29900
C1436       C  0.39850435  0.98986407  0.02041404    -0.21000
C1437       C  0.39037689  0.97652931  0.49729527    -0.09000
C1438       C  0.40345793  0.97666007  0.47370459     0.29900
F1439       F  0.39660988  0.96344337  0.44915990    -0.19500
H1440       H  0.43371737  0.99024494  0.45706908     0.18200
H1441       H  0.38888427  0.98982547  0.03928048     0.18200
F1442       F  0.42596809  0.01662322  0.04698979    -0.19500
C1443       C  0.44156733  0.82867170  0.65015992    -0.21000
C1444       C  0.42504298  0.81666489  0.63077125    -0.09000
C1445       C  0.41361752  0.79612532  0.63730791     0.29900
C1446       C  0.41895337  0.78778345  0.66235953    -0.21000
C1447       C  0.43592644  0.79968096  0.68098414    -0.09000
C1448       C  0.44709872  0.82030449  0.67485401     0.29900
F1449       F  0.46341533  0.83241990  0.69258004    -0.19500
H1450       H  0.45068531  0.84451107  0.64551085     0.18200
H1451       H  0.41006603  0.77187944  0.66662492     0.18200
F1452       F  0.39727763  0.78410447  0.61957168    -0.19500
C1453       C  0.42631342  0.78808479  0.84594239    -0.21000
C1454       C  0.44015353  0.80000417  0.82209801    -0.09000
C1455       C  0.44921439  0.82079730  0.82390203     0.29900
C1456       C  0.44470481  0.82942725  0.84951166    -0.21000
C1457       C  0.43122666  0.81753714  0.87395241    -0.09000
C1458       C  0.42190528  0.79667155  0.87167066     0.29900
F1459       F  0.40828044  0.78442001  0.89389333    -0.19500
H1460       H  0.41907499  0.77202304  0.84493316     0.18200
H1461       H  0.45211641  0.84548299  0.85043565     0.18200
F1462       F  0.46216784  0.83277952  0.80065573    -0.19500
C1463       C  0.44746528  0.95968129  0.52857817    -0.21000
C1464       C  0.45380353  0.95231897  0.50319399    -0.09000
C1465       C  0.46356362  0.96513805  0.97208776     0.29900
C1466       C  0.46866005  0.98506743  0.97261012    -0.21000
C1467       C  0.46285697  0.99220869  0.50258793    -0.09000
C1468       C  0.45197850  0.97945069  0.52836497     0.29900
F1469       F  0.44602643  0.98620150  0.55357532    -0.19500
H1470       H  0.43877721  0.95008101  0.54845915     0.18200
H1471       H  0.47763984  0.99493476  0.95315024     0.18200
F1472       F  0.47061541  0.95897800  0.94760590    -0.19500
C1473       C  0.81143662  0.27753989  0.65834700    -0.21000
C1474       C  0.79879611  0.28216752  0.67547154    -0.09000
C1475       C  0.79896112  0.29979960  0.66758365     0.29900
C1476       C  0.81134002  0.31228175  0.64286558    -0.21000
C1477       C  0.82342432  0.30724475  0.62519139    -0.09000
C1478       C  0.82351528  0.28985076  0.63326041     0.29900
F1479       F  0.83539111  0.28483489  0.61701518    -0.19500
H1480       H  0.81172067  0.26415393  0.66394376     0.18200
H1481       H  0.81097562  0.32557277  0.63680011     0.18200
F1482       F  0.78713047  0.30498968  0.68353656    -0.19500
C1483       C  0.81088251  0.27745438  0.83494125    -0.21000
C1484       C  0.79942516  0.28265763  0.81579342    -0.09000
C1485       C  0.80067264  0.30102890  0.82125920     0.29900
C1486       C  0.81252395  0.31344771  0.84611326    -0.21000
C1487       C  0.82316053  0.30773917  0.86624389    -0.09000
C1488       C  0.82255256  0.28977892  0.86000134     0.29900
F1489       F  0.83330561  0.28414479  0.87803143    -0.19500
H1490       H  0.81043884  0.26355874  0.83105865     0.18200
H1491       H  0.81280868  0.32723542  0.85031988     0.18200
F1492       F  0.79039838  0.30701138  0.80271556    -0.19500
C1493       C  0.69414163  0.19071262  0.84888080    -0.21000
C1494       C  0.70155780  0.18218887  0.87039791    -0.09000
C1495       C  0.72056404  0.18496898  0.86479197     0.29900
C1496       C  0.73212163  0.19659206  0.83870692    -0.21000
C1497       C  0.72507861  0.20587135  0.81802253    -0.09000
C1498       C  0.70579375  0.20254872  0.82302638     0.29900
F1499       F  0.69816433  0.21070489  0.80297345    -0.19500
H1500       H  0.67952571  0.18873636  0.85263348     0.18200
H1501       H  0.74683714  0.19876118  0.83520884     0.18200
F1502       F  0.72794517  0.17635987  0.88436405    -0.19500
C1503       C  0.70603986  0.20466781  0.67072527    -0.21000
C1504       C  0.72434223  0.20591400  0.67666725    -0.09000
C1505       C  0.72987584  0.19471794  0.65744089     0.29900
C1506       C  0.71765449  0.18313877  0.63227649    -0.21000
C1507       C  0.69953465  0.18212663  0.62613689    -0.09000
C1508       C  0.69366244  0.19279975  0.64587904     0.29900
F1509       F  0.67647977  0.19259147  0.64022455    -0.19500
H1510       H  0.70135922  0.21306938  0.68514295     0.18200
H1511       H  0.72242305  0.17498373  0.61739902     0.18200
F1512       F  0.74736775  0.19539754  0.66217645    -0.19500
loop_ 
_geom_bond_atom_site_label_1 
_geom_bond_atom_site_label_2 
_geom_bond_distance 
_geom_bond_site_symmetry_2 
_ccdc_geom_bond_type 
O1           Cu9   2.007       .  S
O1           C11   1.278       .  A
O2           Cu9   2.011       .  S
O2           C12   1.279       .  A
O3           Cu9   2.015       .  S
O3           C13   1.279       .  A
O4           Cu9   2.015       .  S
O4           C14   1.279       .  A
O5          Cu10   2.003       .  S
O5           C14   1.277       .  A
O6          Cu10   2.003       .  S
O6           C13   1.277       .  A
O7          Cu10   2.007       .  S
O7           C12   1.278       .  A
O8          Cu10   2.003       .  S
O8           C11   1.277       .  A
Cu9         Cu10   2.370       .  S
C11         C741   1.479       .  S
C12         C718   1.484       .  S
C13         C728   1.482       .  S
C14         C748   1.482       .  S
N15          N16   1.321       .  A
N15          C19   1.345       .  A
N15         Cu23   2.072       .  S
N16          C17   1.342       .  A
N16         Cu22   2.063       .  S
C17          C18   1.383       .  A
C17          H20   1.082       .  S
C18         C688   1.478       .  S
C18          C19   1.387       .  A
C19          H21   1.082       .  S
Cu22        N781   2.064   1_554  S
Cu23         N33   2.073       .  S
Cu24         N26   2.079       .  S
Cu24         N32   2.079       .  S
N25          N26   1.321       .  A
N25          C29   1.344       .  A
N25        Cu778   2.069       .  S
N26          C27   1.345       .  A
C27          C28   1.388       .  A
C27          H30   1.082       .  S
C28         C701   1.484       .  S
C28          C29   1.386       .  A
C29          H31   1.081       .  S
N32         N789   1.321       .  A
N32          C36   1.345       .  A
N33         N788   1.322   1_554  A
N33          C34   1.343       .  A
C34          C35   1.385   1_554  A
C34          H37   1.082       .  S
C35         C708   1.483       .  S
C35         C792   1.388       .  A
C36         C791   1.388       .  A
C36          H38   1.081       .  S
N39          N40   1.322       .  A
N39          C43   1.348       .  A
N39         Cu47   2.084       .  S
N40          C41   1.343       .  A
N40        Cu802   2.068       .  S
C41          C42   1.382       .  A
C41          H44   1.082       .  S
C42         C661   1.478       .  S
C42          C43   1.387       .  A
C43          H45   1.082       .  S
Cu46         N49   2.063   1_556  S
Cu46        N796   2.063       .  S
Cu47         N57   2.085       .  S
Cu48         N50   2.077       .  S
Cu48         N56   2.078       .  S
N49          N50   1.320       .  A
N49          C53   1.343       .  A
N50          C51   1.346       .  A
C51          C52   1.389       .  A
C51          H54   1.082       .  S
C52         C668   1.484       .  S
C52          C53   1.385       .  A
C53          H55   1.082       .  S
N56         N813   1.323   1_554  A
N56          C60   1.344       .  A
N57         N812   1.323       .  A
N57          C58   1.347       .  A
C58         C815   1.388       .  A
C58          H61   1.081       .  S
C59         C681   1.486       .  S
C59          C60   1.385   1_556  A
C59         C814   1.388       .  A
C60          H62   1.082       .  S
N63          N64   1.321       .  A
N63          C67   1.345       .  A
N63         Cu71   2.075       .  S
N64          C65   1.342       .  A
N64         Cu70   2.064       .  S
C65          C66   1.384       .  A
C65          H68   1.082       .  S
C66         C628   1.481       .  S
C66          C67   1.388       .  A
C67          H69   1.081       .  S
Cu70        N829   2.064   1_554  S
Cu71         N81   2.075       .  S
Cu72         N74   2.074       .  S
Cu72         N80   2.075       .  S
N73          N74   1.321       .  A
N73          C77   1.342       .  A
N73        Cu826   2.058       .  S
N74          C75   1.344       .  A
C75          C76   1.387       .  A
C75          H78   1.082       .  S
C76         C641   1.480       .  S
C76          C77   1.384       .  A
C77          H79   1.082       .  S
N80         N837   1.322       .  A
N80          C84   1.344       .  A
N81         N836   1.322   1_554  A
N81          C82   1.345       .  A
C82          C83   1.388       .  A
C82          H85   1.081       .  S
C83         C648   1.486       .  S
C83         C840   1.387   1_554  A
C84         C839   1.387       .  A
C84          H86   1.082       .  S
N87          N88   1.321       .  A
N87          C91   1.344       .  A
N87         Cu95   2.071       .  S
N88          C89   1.342       .  A
N88        Cu850   2.064       .  S
C89          C90   1.383       .  A
C89          H92   1.082       .  S
C90         C738   1.477       .  S
C90          C91   1.386       .  A
C91          H93   1.082       .  S
Cu94         N97   2.068   1_556  S
Cu94        N844   2.068       .  S
Cu95        N105   2.071       .  S
Cu96         N98   2.076       .  S
Cu96        N104   2.077       .  S
N97          N98   1.321       .  A
N97         C101   1.342       .  A
N98          C99   1.347       .  A
C99         C100   1.387       .  A
C99         H102   1.082       .  S
C100        C751   1.479       .  S
C100        C101   1.383       .  A
C101        H103   1.082       .  S
N104        N861   1.322   1_554  A
N104        C108   1.344       .  A
N105        N860   1.322       .  A
N105        C106   1.345       .  A
C106        C863   1.386       .  A
C106        H109   1.082       .  S
C107        C618   1.481       .  S
C107        C108   1.385   1_556  A
C107        C862   1.386       .  A
C108        H110   1.082       .  S
C111        C711   1.483   1_545  S
C111        C112   1.416       .  A
C111        C116   1.401       .  A
C112        C678   1.486       .  S
C112        C113   1.406       .  A
C113        C114   1.405   1_556  A
C113        H118   1.084   1_556  S
C114        C651   1.483       .  S
C114        C115   1.413   1_554  A
C115        C621   1.481       .  S
C115        C116   1.401       .  A
C116        H117   1.084       .  S
O119       Cu127   2.006       .  S
O119        C129   1.279       .  A
O120       Cu127   2.015       .  S
O120        C130   1.278       .  A
O121       Cu127   2.001       .  S
O121        C131   1.277       .  A
O122       Cu127   2.000       .  S
O122        C132   1.277       .  A
O123       Cu128   2.005       .  S
O123        C132   1.278       .  A
O124       Cu128   2.000       .  S
O124        C131   1.277       .  A
O125       Cu128   2.005       .  S
O125        C130   1.278       .  A
O126       Cu128   2.012       .  S
O126        C129   1.278       .  A
Cu127      Cu128   2.371       .  S
C129        C591   1.481       .  S
C130        C611   1.486       .  S
C131        C601   1.475       .  S
C132        C581   1.477       .  S
O133       Cu141   2.013       .  S
O133        C143   1.279       .  A
O134       Cu141   2.018       .  S
O134        C144   1.280       .  A
O135       Cu141   2.012       .  S
O135        C145   1.278       .  A
O136       Cu141   2.010       .  S
O136        C146   1.279       .  A
O137       Cu142   2.008       .  S
O137        C146   1.278       .  A
O138       Cu142   2.011       .  S
O138        C145   1.278       .  A
O139       Cu142   2.004       .  S
O139        C144   1.277       .  A
O140       Cu142   2.003       .  S
O140        C143   1.277       .  A
Cu141      Cu142   2.371       .  S
C143        C561   1.479       .  S
C144        C658   1.485       .  S
C145        C671   1.479       .  S
C146        C571   1.481       .  S
N147        N148   1.321       .  A
N147        C151   1.344       .  A
N147       Cu155   2.070       .  S
N148        C149   1.343       .  A
N148       Cu154   2.066       .  S
C149        C150   1.385       .  A
C149        H152   1.081       .  S
C150        C598   1.479       .  S
C150        C151   1.386       .  A
C151        H153   1.082       .  S
Cu154       N913   2.066       .  S
Cu155       N165   2.070       .  S
Cu156       N158   2.071       .  S
Cu156       N164   2.070       .  S
N157        N158   1.322       .  A
N157        C161   1.346       .  A
N157       Cu910   2.074   1_554  S
N158        C159   1.343       .  A
C159        C160   1.383       .  A
C159        H162   1.082       .  S
C160        C608   1.476       .  S
C160        C161   1.384       .  A
C161        H163   1.082       .  S
N164        N921   1.320   1_554  A
N164        C168   1.344       .  A
N165        N920   1.321       .  A
N165        C166   1.344       .  A
C166        C167   1.386       .  A
C166        H169   1.082       .  S
C167        C548   1.485       .  S
C167        C924   1.388       .  A
C168        C923   1.386   1_554  A
C168        H170   1.081       .  S
N171        N172   1.321       .  A
N171        C175   1.346       .  A
N171       Cu179   2.075       .  S
N172        C173   1.342       .  A
N172       Cu934   2.064   1_554  S
C173        C174   1.383       .  A
C173        H176   1.082       .  S
C174        C558   1.479       .  S
C174        C175   1.387       .  A
C175        H177   1.082       .  S
Cu178       N181   2.061       .  S
Cu178       N928   2.061       .  S
Cu179       N189   2.075       .  S
Cu180       N182   2.077       .  S
Cu180       N188   2.078       .  S
N181        N182   1.321       .  A
N181        C185   1.341       .  A
N182        C183   1.347       .  A
C183        C184   1.388       .  A
C183        H186   1.082       .  S
C184        C568   1.479       .  S
C184        C185   1.383       .  A
C185        H187   1.082       .  S
N188        N945   1.323       .  A
N188        C192   1.345       .  A
N189        N944   1.323   1_554  A
N189        C190   1.344       .  A
C190        C947   1.385   1_554  A
C190        H193   1.082       .  S
C191        C538   1.481       .  S
C191        C192   1.385       .  A
C191        C946   1.385       .  A
C192        H194   1.081       .  S
N195        N196   1.321       .  A
N195        C199   1.345       .  A
N195       Cu203   2.070       .  S
N196        C197   1.345       .  A
N196       Cu958   2.074   1_554  S
C197        C198   1.384       .  A
C197        H200   1.082       .  S
C198        C721   1.476       .  S
C198        C199   1.384       .  A
C199        H201   1.082       .  S
Cu202       N205   2.065       .  S
Cu202       N952   2.064       .  S
Cu203       N213   2.071       .  S
Cu204       N206   2.078       .  S
Cu204       N212   2.078       .  S
N205        N206   1.322       .  A
N205        C209   1.343       .  A
N206        C207   1.346       .  A
C207        C208   1.387       .  A
C207        H210   1.082       .  S
C208        C731   1.480       .  S
C208        C209   1.383       .  A
C209        H211   1.082       .  S
N212        N969   1.322       .  A
N212        C216   1.346       .  A
N213        N968   1.322   1_554  A
N213        C214   1.344       .  A
C214        C971   1.385   1_554  A
C214        H217   1.082       .  S
C215        C528   1.482       .  S
C215        C216   1.388       .  A
C215        C970   1.384       .  A
C216        H218   1.081       .  S
N219        N220   1.321       .  A
N219        C223   1.345       .  A
N219       Cu227   2.069       .  S
N220        C221   1.343       .  A
N220       Cu226   2.069       .  S
C221        C222   1.384       .  A
C221        H224   1.082       .  S
C222        C501   1.478       .  S
C222        C223   1.385       .  A
C223        H225   1.081       .  S
Cu226       N985   2.070       .  S
Cu227       N237   2.069       .  S
Cu228       N230   2.072       .  S
Cu228       N236   2.073       .  S
N229        N230   1.320       .  A
N229        C233   1.342       .  A
N229       Cu982   2.058       .  S
N230        C231   1.345       .  A
C231        C232   1.387       .  A
C231        H234   1.082       .  S
C232        C511   1.478       .  S
C232        C233   1.383       .  A
C233        H235   1.082       .  S
N236        N993   1.322   1_554  A
N236        C240   1.344       .  A
N237        N992   1.321       .  A
N237        C238   1.342       .  A
C238        C239   1.387       .  A
C238        H241   1.081       .  S
C239        C518   1.490       .  S
C239        C996   1.391       .  A
C240        C995   1.387       .  A
C240        H242   1.081       .  S
C243        C551   1.483   1_655  S
C243        C244   1.416       .  A
C243        C248   1.401       .  A
C244        C541   1.482   1_655  S
C244        C245   1.406       .  A
C245        C246   1.403       .  A
C245        H250   1.084       .  S
C246        C521   1.482       .  S
C246        C247   1.413       .  A
C247        C531   1.481       .  S
C247        C248   1.402       .  A
C248        H249   1.084       .  S
O251       Cu259   2.010       .  S
O251        C261   1.278       .  A
O252       Cu259   2.004       .  S
O252        C262   1.278       .  A
O253       Cu259   1.995       .  S
O253        C263   1.276       .  A
O254       Cu259   2.003       .  S
O254        C264   1.277       .  A
O255       Cu260   2.002       .  S
O255        C264   1.278       .  A
O256       Cu260   2.011       .  S
O256        C263   1.279       .  A
O257       Cu260   2.007       .  S
O257        C262   1.277       .  A
O258       Cu260   1.998       .  S
O258        C261   1.277       .  A
Cu259      Cu260   2.373       .  S
C261        C481   1.475       .  S
C262        C631   1.477       .  S
C263        C638   1.476       .  S
C264        C488   1.476       .  S
O265       Cu273   2.015       .  S
O265        C275   1.279       .  A
O266       Cu273   2.012       .  S
O266        C276   1.279       .  A
O267       Cu273   2.000       .  S
O267        C277   1.276       .  A
O268       Cu273   2.005       .  S
O268        C278   1.278       .  A
O269       Cu274   2.007       .  S
O269        C278   1.278       .  A
O270       Cu274   2.007       .  S
O270        C277   1.279       .  A
O271       Cu274   2.000       .  S
O271        C276   1.277       .  A
O272       Cu274   1.993       .  S
O272        C275   1.276       .  A
Cu273      Cu274   2.371       .  S
C275        C508   1.477       .  S
C276        C471   1.482       .  S
C277        C458   1.477       .  S
C278        C498   1.481       .  S
O279       Cu287   2.012       .  S
O279        C289   1.279       .  A
O280       Cu287   2.017       .  S
O280        C290   1.279       .  A
O281       Cu287   2.005       .  S
O281        C291   1.278       .  A
O282       Cu287   1.996       .  S
O282        C292   1.276       .  A
O283       Cu288   2.013       .  S
O283        C292   1.279       .  A
O284       Cu288   2.009       .  S
O284        C291   1.278       .  A
O285       Cu288   2.002       .  S
O285        C290   1.277       .  A
O286       Cu288   2.009       .  S
O286        C289   1.278       .  A
Cu287      Cu288   2.371       .  S
C289        C451   1.482       .  S
C290        C698   1.481       .  S
C291        C691   1.480       .  S
C292        C441   1.478       .  S
N293        N294   1.322       .  A
N293        C297   1.344       .  A
N293       Cu301   2.076       .  S
N294        C295   1.346       .  A
N294       Cu300   2.071       .  S
C295        C296   1.385       .  A
C295        H298   1.082       .  S
C296        C588   1.482       .  S
C296        C297   1.386       .  A
C297        H299   1.081       .  S
Cu300      N1059   2.070       .  S
Cu301       N311   2.077       .  S
Cu302       N304   2.066       .  S
Cu302       N310   2.066       .  S
N303        N304   1.320       .  A
N303        C307   1.341       .  A
N303      Cu1056   2.061   1_554  S
N304        C305   1.344       .  A
C305        C306   1.386       .  A
C305        H308   1.082       .  S
C306        C578   1.478       .  S
C306        C307   1.384       .  A
C307        H309   1.081       .  S
N310       N1067   1.321   1_554  A
N310        C314   1.342       .  A
N311       N1066   1.321       .  A
N311        C312   1.346       .  A
C312        C313   1.390       .  A
C312        H315   1.080       .  S
C313        C431   1.488       .  S
C313       C1070   1.387       .  A
C314       C1069   1.385   1_554  A
C314        H316   1.081       .  S
N317        N318   1.322       .  A
N317        C321   1.346       .  A
N317       Cu325   2.075       .  S
N318        C319   1.344       .  A
N318       Cu324   2.073   1_554  S
C319        C320   1.384       .  A
C319        H322   1.082       .  S
C320        C448   1.478       .  S
C320        C321   1.385       .  A
C321        H323   1.082       .  S
Cu324      N1083   2.073       .  S
Cu325       N335   2.075       .  S
Cu326       N328   2.072       .  S
Cu326       N334   2.072       .  S
N327        N328   1.320       .  A
N327        C331   1.341       .  A
N327      Cu1080   2.055       .  S
N328        C329   1.346       .  A
C329        C330   1.387       .  A
C329        H332   1.081       .  S
C330        C438   1.475       .  S
C330        C331   1.381       .  A
C331        H333   1.082       .  S
N334       N1091   1.322       .  A
N334        C338   1.344       .  A
N335       N1090   1.321   1_554  A
N335        C336   1.345       .  A
C336        C337   1.388       .  A
C336        H339   1.080       .  S
C337        C421   1.484       .  S
C337       C1094   1.386   1_554  A
C338       C1093   1.386       .  A
C338        H340   1.081       .  S
N341        N342   1.320       .  A
N341        C345   1.345       .  A
N341       Cu349   2.070       .  S
N342        C343   1.342       .  A
N342       Cu348   2.059       .  S
C343        C344   1.383       .  A
C343        H346   1.082       .  S
C344        C491   1.478       .  S
C344        C345   1.387       .  A
C345        H347   1.081       .  S
Cu348      N1107   2.059   1_554  S
Cu349       N359   2.070       .  S
Cu350       N352   2.073       .  S
Cu350       N358   2.073       .  S
N351        N352   1.322       .  A
N351        C355   1.342       .  A
N351      Cu1104   2.067       .  S
N352        C353   1.345       .  A
C353        C354   1.387       .  A
C353        H356   1.082       .  S
C354        C478   1.480       .  S
C354        C355   1.384       .  A
C355        H357   1.081       .  S
N358       N1115   1.321       .  A
N358        C362   1.344       .  A
N359       N1114   1.321   1_554  A
N359        C360   1.343       .  A
C360        C361   1.386       .  A
C360        H363   1.081       .  S
C361        C408   1.480       .  S
C361       C1118   1.385   1_554  A
C362       C1117   1.387       .  A
C362        H364   1.082       .  S
N365        N366   1.321       .  A
N365        C369   1.345       .  A
N365       Cu373   2.070       .  S
N366        C367   1.343       .  A
N366       Cu372   2.061       .  S
C367        C368   1.381       .  A
C367        H370   1.082       .  S
C368        C468   1.472       .  S
C368        C369   1.384       .  A
C369        H371   1.082       .  S
Cu372      N1131   2.062       .  S
Cu373       N383   2.071       .  S
Cu374       N376   2.077       .  S
Cu374       N382   2.078       .  S
N375        N376   1.321       .  A
N375        C379   1.341       .  A
N375      Cu1128   2.058       .  S
N376        C377   1.346       .  A
C377        C378   1.387       .  A
C377        H380   1.082       .  S
C378        C461   1.478       .  S
C378        C379   1.382       .  A
C379        H381   1.082       .  S
N382       N1139   1.322   1_554  A
N382        C386   1.346       .  A
N383       N1138   1.321       .  A
N383        C384   1.343       .  A
C384        C385   1.385       .  A
C384        H387   1.082       .  S
C385        C398   1.483       .  S
C385       C1142   1.388       .  A
C386       C1141   1.388       .  A
C386        H388   1.081       .  S
C389        C428   1.477       .  S
C389        C390   1.409       .  A
C389        C394   1.399       .  A
C390       C1174   1.473       .  S
C390        C391   1.401       .  A
C391        C392   1.401       .  A
C391        H396   1.084       .  S
C392        C401   1.485       .  S
C392        C393   1.414       .  A
C393       C1167   1.473       .  S
C393        C394   1.402       .  A
C394        H395   1.084       .  S
C397        C398   1.406       .  A
C397        C402   1.397       .  A
C397        H404   1.082       .  S
C398       C1155   1.409       .  A
C399        C400   1.399       .  A
C399       C1154   1.410       .  A
C399        F406   1.356       .  S
C400       C1157   1.404       .  A
C400        H405   1.083       .  S
C401        C402   1.404       .  A
C401       C1156   1.405       .  A
C402        F403   1.357       .  S
C407        C412   1.396       .  A
C407       C1164   1.405       .  A
C407        H414   1.082       .  S
C408        C409   1.409       .  A
C408       C1163   1.406   1_554  A
C409        C410   1.397       .  A
C409        F416   1.356       .  S
C410        C411   1.401       .  A
C410        H415   1.083       .  S
C411       C1149   1.477       .  S
C411       C1168   1.403   1_554  A
C412       C1167   1.403       .  A
C412        F413   1.357       .  S
C417        C418   1.400       .  A
C417        C422   1.397       .  A
C417        H424   1.083       .  S
C418       C1146   1.474       .  S
C418       C1175   1.400   1_554  A
C419        C420   1.396       .  A
C419       C1174   1.400       .  A
C419        F426   1.358       .  S
C420       C1177   1.408       .  A
C420        H425   1.082       .  S
C421        C422   1.410       .  A
C421       C1176   1.408   1_554  A
C422        F423   1.356       .  S
C427       C1184   1.401   1_556  A
C427       C1188   1.398       .  A
C427        H434   1.083       .  S
C428        C429   1.399       .  A
C428       C1183   1.402       .  A
C429        C430   1.396       .  A
C429        F436   1.357       .  S
C430        C431   1.409       .  A
C430        H435   1.081       .  S
C431        C432   1.411       .  A
C432       C1183   1.400       .  A
C432       F1189   1.356       .  S
F433       C1188   1.356       .  S
C437        C438   1.404       .  A
C437        C442   1.397       .  A
C437        H444   1.083       .  S
C438        C439   1.405       .  A
C439        C440   1.397       .  A
C439        F446   1.357       .  S
C440        C441   1.406       .  A
C440        H445   1.083       .  S
C441        C442   1.407       .  A
C442        F443   1.357       .  S
C447        C448   1.404       .  A
C447        C452   1.400       .  A
C447        H454   1.083       .  S
C448        C449   1.405       .  A
C449        C450   1.398       .  A
C449        F456   1.357       .  S
C450        C451   1.405       .  A
C450        H455   1.083       .  S
C451        C452   1.409       .  A
C452        F453   1.357       .  S
C457        C458   1.403       .  A
C457        C462   1.395       .  A
C457        H464   1.083       .  S
C458        C459   1.408       .  A
C459        C460   1.399       .  A
C459        F466   1.358       .  S
C460        C461   1.404       .  A
C460        H465   1.083       .  S
C461        C462   1.407       .  A
C462        F463   1.357       .  S
C467        C468   1.401       .  A
C467        C472   1.397       .  A
C467        H474   1.083       .  S
C468        C469   1.404       .  A
C469        C470   1.398       .  A
C469        F476   1.357       .  S
C470        C471   1.406       .  A
C470        H475   1.083       .  S
C471        C472   1.411       .  A
C472        F473   1.357       .  S
C477        C478   1.405       .  A
C477        C482   1.396       .  A
C477        H484   1.082       .  S
C478        C479   1.408       .  A
C479        C480   1.397       .  A
C479        F486   1.357       .  S
C480        C481   1.403       .  A
C480        H485   1.083       .  S
C481        C482   1.406       .  A
C482        F483   1.358       .  S
C487        C488   1.404       .  A
C487        C492   1.397       .  A
C487        H494   1.083       .  S
C488        C489   1.406       .  A
C489        C490   1.396       .  A
C489        F496   1.358       .  S
C490        C491   1.405       .  A
C490        H495   1.083       .  S
C491        C492   1.407       .  A
C492        F493   1.356       .  S
C497        C498   1.406       .  A
C497        C502   1.399       .  A
C497        H504   1.083       .  S
C498        C499   1.409       .  A
C499        C500   1.396       .  A
C499        F506   1.357       .  S
C500        C501   1.402       .  A
C500        H505   1.083       .  S
C501        C502   1.407       .  A
C502        F503   1.357       .  S
C507        C508   1.404       .  A
C507        C512   1.398       .  A
C507        H514   1.083       .  S
C508        C509   1.408       .  A
C509        C510   1.396       .  A
C509        F516   1.358       .  S
C510        C511   1.403       .  A
C510        H515   1.083       .  S
C511        C512   1.408       .  A
C512        F513   1.357       .  S
C517        C518   1.410       .  A
C517        C522   1.398       .  A
C517        H524   1.081       .  S
C518       C1275   1.411       .  A
C519        C520   1.397       .  A
C519       C1274   1.410       .  A
C519        F526   1.356       .  S
C520       C1277   1.401       .  A
C520        H525   1.083       .  S
C521        C522   1.401       .  A
C521       C1276   1.403       .  A
C522        F523   1.357       .  S
C527        C532   1.399       .  A
C527       C1284   1.408   1_554  A
C527        H534   1.082       .  S
C528        C529   1.409       .  A
C528       C1283   1.407       .  A
C529        C530   1.398       .  A
C529        F536   1.357       .  S
C530        C531   1.404       .  A
C530        H535   1.083       .  S
C531       C1288   1.402       .  A
C532       C1287   1.402   1_554  A
C532        F533   1.358       .  S
C537        C542   1.398       .  A
C537       C1294   1.405   1_554  A
C537        H544   1.083       .  S
C538        C539   1.408       .  A
C538       C1293   1.405       .  A
C539        C540   1.398       .  A
C539        F546   1.357       .  S
C540        C541   1.402       .  A
C540        H545   1.083   1_455  S
C541       C1298   1.405       .  A
C542       C1297   1.406   1_455  A
C542        F543   1.357       .  S
C547        C552   1.398       .  A
C547       C1304   1.406       .  A
C547        H554   1.082       .  S
C548        C549   1.409       .  A
C548       C1303   1.407       .  A
C549        C550   1.398       .  A
C549        F556   1.356       .  S
C550        C551   1.402       .  A
C550        H555   1.083       .  S
C551       C1308   1.404       .  A
C552       C1307   1.405       .  A
C552        F553   1.357       .  S
C557        C558   1.404       .  A
C557        C562   1.399       .  A
C557        H564   1.083       .  S
C558        C559   1.407       .  A
C559        C560   1.397       .  A
C559        F566   1.357       .  S
C560        C561   1.404       .  A
C560        H565   1.083       .  S
C561        C562   1.409       .  A
C562        F563   1.358       .  S
C567        C568   1.404       .  A
C567        C572   1.400       .  A
C567        H574   1.083       .  S
C568        C569   1.407       .  A
C569        C570   1.396       .  A
C569        F576   1.357       .  S
C570        C571   1.404       .  A
C570        H575   1.083       .  S
C571        C572   1.409       .  A
C572        F573   1.357       .  S
C577        C578   1.405       .  A
C577        C582   1.397       .  A
C577        H584   1.082       .  S
C578        C579   1.407       .  A
C579        C580   1.395       .  A
C579        F586   1.357       .  S
C580        C581   1.404       .  A
C580        H585   1.083       .  S
C581        C582   1.408       .  A
C582        F583   1.358       .  S
C587        C588   1.405       .  A
C587        C592   1.401       .  A
C587        H594   1.083       .  S
C588        C589   1.407       .  A
C589        C590   1.396       .  A
C589        F596   1.356       .  S
C590        C591   1.404       .  A
C590        H595   1.083       .  S
C591        C592   1.409       .  A
C592        F593   1.358       .  S
C597        C598   1.405       .  A
C597        C602   1.397       .  A
C597        H604   1.082       .  S
C598        C599   1.407       .  A
C599        C600   1.396       .  A
C599        F606   1.357       .  S
C600        C601   1.404       .  A
C600        H605   1.083       .  S
C601        C602   1.406       .  A
C602        F603   1.358       .  S
C607        C608   1.402       .  A
C607        C612   1.401       .  A
C607        H614   1.083       .  S
C608        C609   1.404       .  A
C609        C610   1.396       .  A
C609        F616   1.357       .  S
C610        C611   1.407       .  A
C610        H615   1.083       .  S
C611        C612   1.411       .  A
C612        F613   1.357       .  S
C617        C618   1.405   1_554  A
C617        C622   1.396       .  A
C617        H624   1.083       .  S
C618       C1375   1.409       .  A
C619        C620   1.398       .  A
C619       C1374   1.408       .  A
C619        F626   1.357       .  S
C620       C1377   1.404       .  A
C620        H625   1.083       .  S
C621        C622   1.403   1_556  A
C621       C1376   1.403       .  A
C622        F623   1.357       .  S
C627        C628   1.405       .  A
C627        C632   1.398       .  A
C627        H634   1.083       .  S
C628        C629   1.408       .  A
C629        C630   1.397       .  A
C629        F636   1.356       .  S
C630        C631   1.404       .  A
C630        H635   1.083       .  S
C631        C632   1.407       .  A
C632        F633   1.358       .  S
C637        C638   1.403       .  A
C637        C642   1.397       .  A
C637        H644   1.083       .  S
C638        C639   1.407       .  A
C639        C640   1.396       .  A
C639        F646   1.358       .  S
C640        C641   1.404       .  A
C640        H645   1.083       .  S
C641        C642   1.408       .  A
C642        F643   1.357       .  S
C647        C652   1.398       .  A
C647       C1404   1.407       .  A
C647        H654   1.082       .  S
C648        C649   1.410       .  A
C648       C1403   1.407   1_554  A
C649        C650   1.399       .  A
C649        F656   1.356       .  S
C650        C651   1.403       .  A
C650        H655   1.083       .  S
C651       C1408   1.403   1_554  A
C652       C1407   1.403       .  A
C652        F653   1.357       .  S
C657        C658   1.406       .  A
C657        C662   1.399       .  A
C657        H664   1.083       .  S
C658        C659   1.411       .  A
C659        C660   1.399       .  A
C659        F666   1.357       .  S
C660        C661   1.402       .  A
C660        H665   1.083       .  S
C661        C662   1.406       .  A
C662        F663   1.357       .  S
C667        C668   1.405       .  A
C667        C672   1.399       .  A
C667        H674   1.083       .  S
C668        C669   1.409       .  A
C669        C670   1.399       .  A
C669        F676   1.357       .  S
C670        C671   1.404       .  A
C670        H675   1.083       .  S
C671        C672   1.407       .  A
C672        F673   1.357       .  S
C677        C678   1.404   1_565  A
C677        C682   1.399       .  A
C677        H684   1.083       .  S
C678       C1435   1.405   1_556  A
C679        C680   1.397   1_545  A
C679       C1434   1.405       .  A
C679        F686   1.358       .  S
C680       C1437   1.406       .  A
C680        H685   1.082       .  S
C681        C682   1.409       .  A
C681       C1436   1.407   1_556  A
C682        F683   1.356       .  S
C687        C688   1.404       .  A
C687        C692   1.398       .  A
C687        H694   1.083       .  S
C688        C689   1.406       .  A
C689        C690   1.397       .  A
C689        F696   1.357       .  S
C690        C691   1.405       .  A
C690        H695   1.083       .  S
C691        C692   1.408       .  A
C692        F693   1.357       .  S
C697        C698   1.404       .  A
C697        C702   1.399       .  A
C697        H704   1.083       .  S
C698        C699   1.408       .  A
C699        C700   1.398       .  A
C699        F706   1.358       .  S
C700        C701   1.405       .  A
C700        H705   1.082       .  S
C701        C702   1.409       .  A
C702        F703   1.357       .  S
C707        C708   1.407   1_554  A
C707        C712   1.397       .  A
C707        H714   1.082       .  S
C708       C1465   1.409       .  A
C709        C710   1.397       .  A
C709       C1464   1.409       .  A
C709        F716   1.357       .  S
C710       C1467   1.402       .  A
C710        H715   1.083       .  S
C711        C712   1.404   1_556  A
C711       C1466   1.403       .  A
C712        F713   1.357       .  S
C717        C718   1.407       .  A
C717        C722   1.399       .  A
C717        H724   1.083       .  S
C718        C719   1.410       .  A
C719        C720   1.398       .  A
C719        F726   1.357       .  S
C720        C721   1.402       .  A
C720        H725   1.083       .  S
C721        C722   1.404       .  A
C722        F723   1.357       .  S
C727        C728   1.405       .  A
C727        C732   1.399       .  A
C727        H734   1.083       .  S
C728        C729   1.409       .  A
C729        C730   1.398       .  A
C729        F736   1.357       .  S
C730        C731   1.403       .  A
C730        H735   1.083       .  S
C731        C732   1.408       .  A
C732        F733   1.357       .  S
C737        C738   1.403       .  A
C737        C742   1.396       .  A
C737        H744   1.083       .  S
C738        C739   1.407       .  A
C739        C740   1.397       .  A
C739        F746   1.357       .  S
C740        C741   1.405       .  A
C740        H745   1.083       .  S
C741        C742   1.408       .  A
C742        F743   1.357       .  S
C747        C748   1.407       .  A
C747        C752   1.400       .  A
C747        H754   1.083       .  S
C748        C749   1.407       .  A
C749        C750   1.397       .  A
C749        F756   1.357       .  S
C750        C751   1.403       .  A
C750        H755   1.083       .  S
C751        C752   1.406       .  A
C752        F753   1.357       .  S
O757       Cu765   2.007       .  S
O757        C767   1.278       .  A
O758       Cu765   2.005       .  S
O758        C768   1.278       .  A
O759       Cu765   2.017       .  S
O759        C769   1.279       .  A
O760       Cu765   2.015       .  S
O760        C770   1.279       .  A
O761       Cu766   2.007       .  S
O761        C770   1.278       .  A
O762       Cu766   2.010       .  S
O762        C769   1.278       .  A
O763       Cu766   2.005       .  S
O763        C768   1.278       .  A
O764       Cu766   2.006       .  S
O764        C767   1.278       .  A
Cu765      Cu766   2.370       .  S
C767       C1497   1.478       .  S
C768       C1474   1.481       .  S
C769       C1484   1.485       .  S
C770       C1504   1.484       .  S
N771        N772   1.321       .  A
N771        C775   1.344       .  A
N771       Cu779   2.071       .  S
N772        C773   1.344       .  A
N772       Cu778   2.068       .  S
C773        C774   1.384       .  A
C773        H776   1.082       .  S
C774       C1444   1.478       .  S
C774        C775   1.385       .  A
C775        H777   1.082       .  S
Cu779       N789   2.072       .  S
Cu780       N782   2.078       .  S
Cu780       N788   2.079       .  S
N781        N782   1.320       .  A
N781        C785   1.342       .  A
N782        C783   1.346       .  A
C783        C784   1.390       .  A
C783        H786   1.081       .  S
C784       C1457   1.486       .  S
C784        C785   1.386       .  A
C785        H787   1.081       .  S
N788        C792   1.346       .  A
N789        C790   1.345       .  A
C790        C791   1.386       .  A
C790        H793   1.082       .  S
C791       C1464   1.485       .  S
C792        H794   1.081       .  S
N795        N796   1.322       .  A
N795        C799   1.349       .  A
N795       Cu803   2.085       .  S
N796        C797   1.341       .  A
C797        C798   1.381       .  A
C797        H800   1.082       .  S
C798       C1417   1.478       .  S
C798        C799   1.388       .  A
C799        H801   1.082       .  S
Cu802       N805   2.068       .  S
Cu803       N813   2.085       .  S
Cu804       N806   2.075       .  S
Cu804       N812   2.075       .  S
N805        N806   1.320       .  A
N805        C809   1.343       .  A
N806        C807   1.347       .  A
C807        C808   1.387       .  A
C807        H810   1.082       .  S
C808       C1424   1.481       .  S
C808        C809   1.385       .  A
C809        H811   1.082       .  S
N812        C816   1.343       .  A
N813        C814   1.346       .  A
C814        H817   1.081       .  S
C815       C1437   1.484       .  S
C815        C816   1.385       .  A
C816        H818   1.082       .  S
N819        N820   1.321       .  A
N819        C823   1.344       .  A
N819       Cu827   2.070       .  S
N820        C821   1.341       .  A
N820       Cu826   2.058       .  S
C821        C822   1.382       .  A
C821        H824   1.082       .  S
C822       C1384   1.476       .  S
C822        C823   1.386       .  A
C823        H825   1.081       .  S
Cu827       N837   2.070       .  S
Cu828       N830   2.075       .  S
Cu828       N836   2.076       .  S
N829        N830   1.321       .  A
N829        C833   1.344       .  A
N830        C831   1.345       .  A
C831        C832   1.387       .  A
C831        H834   1.082       .  S
C832       C1397   1.480       .  S
C832        C833   1.385       .  A
C833        H835   1.082       .  S
N836        C840   1.344       .  A
N837        C838   1.344       .  A
C838        C839   1.386       .  A
C838        H841   1.081       .  S
C839       C1404   1.484       .  S
C840        H842   1.082       .  S
N843        N844   1.321       .  A
N843        C847   1.345       .  A
N843       Cu851   2.072       .  S
N844        C845   1.343       .  A
C845        C846   1.384       .  A
C845        H848   1.082       .  S
C846       C1494   1.478       .  S
C846        C847   1.385       .  A
C847        H849   1.082       .  S
Cu850       N853   2.064       .  S
Cu851       N861   2.072       .  S
Cu852       N854   2.071       .  S
Cu852       N860   2.072       .  S
N853        N854   1.321       .  A
N853        C857   1.343       .  A
N854        C855   1.346       .  A
C855        C856   1.386       .  A
C855        H858   1.082       .  S
C856       C1507   1.478       .  S
C856        C857   1.383       .  A
C857        H859   1.082       .  S
N860        C864   1.342       .  A
N861        C862   1.345       .  A
C862        H865   1.082       .  S
C863       C1374   1.479       .  S
C863        C864   1.384       .  A
C864        H866   1.082       .  S
C867       C1467   1.483   1_545  S
C867        C868   1.416       .  A
C867        C872   1.402       .  A
C868       C1434   1.484       .  S
C868        C869   1.406       .  A
C869        C870   1.402       .  A
C869        H874   1.084       .  S
C870       C1407   1.480       .  S
C870        C871   1.412       .  A
C871       C1377   1.482       .  S
C871        C872   1.402       .  A
C872        H873   1.084       .  S
O875       Cu883   2.004       .  S
O875        C885   1.278       .  A
O876       Cu883   2.014       .  S
O876        C886   1.278       .  A
O877       Cu883   2.004       .  S
O877        C887   1.278       .  A
O878       Cu883   1.998       .  S
O878        C888   1.277       .  A
O879       Cu884   2.013       .  S
O879        C888   1.279       .  A
O880       Cu884   2.006       .  S
O880        C887   1.278       .  A
O881       Cu884   2.007       .  S
O881        C886   1.279       .  A
O882       Cu884   2.010       .  S
O882        C885   1.277       .  A
Cu883      Cu884   2.371       .  S
C885       C1347   1.475       .  S
C886       C1367   1.484       .  S
C887       C1357   1.481       .  S
C888       C1337   1.481       .  S
O889       Cu897   2.011       .  S
O889        C899   1.279       .  A
O890       Cu897   2.013       .  S
O890        C900   1.279       .  A
O891       Cu897   2.013       .  S
O891        C901   1.279       .  A
O892       Cu897   2.015       .  S
O892        C902   1.279       .  A
O893       Cu898   2.007       .  S
O893        C902   1.278       .  A
O894       Cu898   2.010       .  S
O894        C901   1.278       .  A
O895       Cu898   2.004       .  S
O895        C900   1.277       .  A
O896       Cu898   2.005       .  S
O896        C899   1.277       .  A
Cu897      Cu898   2.371       .  S
C899       C1317   1.478       .  S
C900       C1414   1.482       .  S
C901       C1427   1.481       .  S
C902       C1327   1.482       .  S
N903        N904   1.322       .  A
N903        C907   1.344       .  A
N903       Cu911   2.068       .  S
N904        C905   1.344       .  A
N904       Cu910   2.074       .  S
C905        C906   1.385       .  A
C905        H908   1.082       .  S
C906       C1354   1.478       .  S
C906        C907   1.384       .  A
C907        H909   1.082       .  S
Cu911       N921   2.068       .  S
Cu912       N914   2.079       .  S
Cu912       N920   2.079       .  S
N913        N914   1.321       .  A
N913        C917   1.345       .  A
N914        C915   1.344       .  A
C915        C916   1.387       .  A
C915        H918   1.081       .  S
C916       C1364   1.481       .  S
C916        C917   1.384       .  A
C917        H919   1.082       .  S
N920        C924   1.345       .  A
N921        C922   1.344       .  A
C922        C923   1.385       .  A
C922        H925   1.082       .  S
C923       C1304   1.480       .  S
C924        H926   1.081       .  S
N927        N928   1.321       .  A
N927        C931   1.347       .  A
N927       Cu935   2.077       .  S
N928        C929   1.342       .  A
C929        C930   1.383       .  A
C929        H932   1.082       .  S
C930       C1314   1.479       .  S
C930        C931   1.388       .  A
C931        H933   1.082       .  S
Cu934       N937   2.064       .  S
Cu935       N945   2.078       .  S
Cu936       N938   2.079       .  S
Cu936       N944   2.080       .  S
N937        N938   1.321       .  A
N937        C941   1.342       .  A
N938        C939   1.347       .  A
C939        C940   1.388       .  A
C939        H942   1.082       .  S
C940       C1324   1.481       .  S
C940        C941   1.384       .  A
C941        H943   1.082       .  S
N944        C948   1.345       .  A
N945        C946   1.345       .  A
C946        H949   1.082       .  S
C947       C1294   1.482       .  S
C947        C948   1.386       .  A
C948        H950   1.081       .  S
N951        N952   1.321       .  A
N951        C955   1.345       .  A
N951       Cu959   2.068       .  S
N952        C953   1.343       .  A
C953        C954   1.382       .  A
C953        H956   1.082       .  S
C954       C1477   1.473       .  S
C954        C955   1.384       .  A
C955        H957   1.082       .  S
Cu958       N961   2.074       .  S
Cu959       N969   2.068       .  S
Cu960       N962   2.084       .  S
Cu960       N968   2.084       .  S
N961        N962   1.322       .  A
N961        C965   1.344       .  A
N962        C963   1.348       .  A
C963        C964   1.388       .  A
C963        H966   1.082       .  S
C964       C1487   1.483       .  S
C964        C965   1.384       .  A
C965        H967   1.082       .  S
N968        C972   1.346       .  A
N969        C970   1.342       .  A
C970        H973   1.082       .  S
C971       C1284   1.485       .  S
C971        C972   1.389       .  A
C972        H974   1.081       .  S
N975        N976   1.321       .  A
N975        C979   1.347       .  A
N975       Cu983   2.074       .  S
N976        C977   1.340       .  A
N976       Cu982   2.058   1_556  S
C977        C978   1.382       .  A
C977        H980   1.082       .  S
C978       C1257   1.479       .  S
C978        C979   1.388       .  A
C979        H981   1.081       .  S
Cu983       N993   2.075       .  S
Cu984       N986   2.080       .  S
Cu984       N992   2.081       .  S
N985        N986   1.322       .  A
N985        C989   1.345       .  A
N986        C987   1.344       .  A
C987        C988   1.386       .  A
C987        H990   1.082       .  S
C988       C1267   1.479       .  S
C988        C989   1.384       .  A
C989        H991   1.082       .  S
N992        C996   1.347       .  A
N993        C994   1.344       .  A
C994        C995   1.387   1_556  A
C994        H997   1.082       .  S
C995       C1274   1.485       .  S
C996        H998   1.081       .  S
C999       C1307   1.481   1_654  S
C999       C1000   1.417       .  A
C999       C1004   1.403       .  A
C1000      C1297   1.484       .  S
C1000      C1001   1.405       .  A
C1001      C1002   1.403       .  A
C1001      H1006   1.084       .  S
C1002      C1277   1.477       .  S
C1002      C1003   1.411       .  A
C1003      C1287   1.482   1_554  S
C1003      C1004   1.399       .  A
C1004      H1005   1.084       .  S
O1007     Cu1015   2.002       .  S
O1007      C1017   1.278       .  A
O1008     Cu1015   2.001       .  S
O1008      C1018   1.278       .  A
O1009     Cu1015   2.001       .  S
O1009      C1019   1.277       .  A
O1010     Cu1015   2.005       .  S
O1010      C1020   1.277       .  A
O1011     Cu1016   2.001       .  S
O1011      C1020   1.278       .  A
O1012     Cu1016   2.010       .  S
O1012      C1019   1.278       .  A
O1013     Cu1016   2.002       .  S
O1013      C1018   1.277       .  A
O1014     Cu1016   1.993       .  S
O1014      C1017   1.276       .  A
Cu1015    Cu1016   2.372       .  S
C1017      C1237   1.474       .  S
C1018      C1387   1.476       .  S
C1019      C1394   1.478       .  S
C1020      C1244   1.478       .  S
O1021     Cu1029   2.011       .  S
O1021      C1031   1.278       .  A
O1022     Cu1029   2.007       .  S
O1022      C1032   1.278       .  A
O1023     Cu1029   2.003       .  S
O1023      C1033   1.277       .  A
O1024     Cu1029   2.006       .  S
O1024      C1034   1.278       .  A
O1025     Cu1030   2.002       .  S
O1025      C1034   1.277       .  A
O1026     Cu1030   2.003       .  S
O1026      C1033   1.278       .  A
O1027     Cu1030   2.006       .  S
O1027      C1032   1.278       .  A
O1028     Cu1030   1.999       .  S
O1028      C1031   1.277       .  A
Cu1029    Cu1030   2.371       .  S
C1031      C1264   1.479       .  S
C1032      C1227   1.482       .  S
C1033      C1214   1.479       .  S
C1034      C1254   1.476       .  S
O1035     Cu1043   1.997       .  S
O1035      C1045   1.276       .  A
O1036     Cu1043   2.006       .  S
O1036      C1046   1.278       .  A
O1037     Cu1043   2.008       .  S
O1037      C1047   1.278       .  A
O1038     Cu1043   2.001       .  S
O1038      C1048   1.278       .  A
O1039     Cu1044   2.012       .  S
O1039      C1048   1.278       .  A
O1040     Cu1044   2.004       .  S
O1040      C1047   1.278       .  A
O1041     Cu1044   2.007       .  S
O1041      C1046   1.278       .  A
O1042     Cu1044   2.007       .  S
O1042      C1045   1.278       .  A
Cu1043    Cu1044   2.372       .  S
C1045      C1207   1.477       .  S
C1046      C1454   1.476       .  S
C1047      C1447   1.478       .  S
C1048      C1197   1.480       .  S
N1049      N1050   1.321       .  A
N1049      C1053   1.345       .  A
N1049     Cu1057   2.081       .  S
N1050      C1051   1.343       .  A
N1050     Cu1056   2.062       .  S
C1051      C1052   1.385       .  A
C1051      H1054   1.082       .  S
C1052      C1344   1.486       .  S
C1052      C1053   1.390       .  A
C1053      H1055   1.080       .  S
Cu1057     N1067   2.081       .  S
Cu1058     N1060   2.069       .  S
Cu1058     N1066   2.069       .  S
N1059      N1060   1.321       .  A
N1059      C1063   1.342       .  A
N1060      C1061   1.345       .  A
C1061      C1062   1.385       .  A
C1061      H1064   1.082       .  S
C1062      C1334   1.477       .  S
C1062      C1063   1.384       .  A
C1063      H1065   1.082       .  S
N1066      C1070   1.342       .  A
N1067      C1068   1.346       .  A
C1068      C1069   1.390       .  A
C1068      H1071   1.081       .  S
C1069      C1187   1.486       .  S
C1070      H1072   1.081       .  S
N1073      N1074   1.320       .  A
N1073      C1077   1.345       .  A
N1073     Cu1081   2.067       .  S
N1074      C1075   1.340       .  A
N1074     Cu1080   2.054       .  S
C1075      C1076   1.381       .  A
C1075      H1078   1.082       .  S
C1076      C1204   1.473       .  S
C1076      C1077   1.386       .  A
C1077      H1079   1.082       .  S
Cu1081     N1091   2.068       .  S
Cu1082     N1084   2.068       .  S
Cu1082     N1090   2.068       .  S
N1083      N1084   1.321       .  A
N1083      C1087   1.344       .  A
N1084      C1085   1.345       .  A
C1085      C1086   1.385       .  A
C1085      H1088   1.081       .  S
C1086      C1194   1.478       .  S
C1086      C1087   1.384       .  A
C1087      H1089   1.082       .  S
N1090      C1094   1.343       .  A
N1091      C1092   1.342       .  A
C1092      C1093   1.386       .  A
C1092      H1095   1.080       .  S
C1093      C1177   1.482       .  S
C1094      H1096   1.082       .  S
N1097      N1098   1.320       .  A
N1097      C1101   1.342       .  A
N1097     Cu1105   2.058       .  S
N1098      C1099   1.343       .  A
N1098     Cu1104   2.066       .  S
C1099      C1100   1.385       .  A
C1099      H1102   1.082       .  S
C1100      C1247   1.475       .  S
C1100      C1101   1.384       .  A
C1101      H1103   1.081       .  S
Cu1105     N1115   2.058       .  S
Cu1106     N1108   2.066       .  S
Cu1106     N1114   2.067       .  S
N1107      N1108   1.321       .  A
N1107      C1111   1.341       .  A
N1108      C1109   1.344       .  A
C1109      C1110   1.384       .  A
C1109      H1112   1.082       .  S
C1110      C1234   1.472       .  S
C1110      C1111   1.382       .  A
C1111      H1113   1.082       .  S
N1114      C1118   1.343       .  A
N1115      C1116   1.341       .  A
C1116      C1117   1.383       .  A
C1116      H1119   1.081       .  S
C1117      C1164   1.478       .  S
C1118      H1120   1.082       .  S
N1121      N1122   1.321       .  A
N1121      C1125   1.345       .  A
N1121     Cu1129   2.072       .  S
N1122      C1123   1.342       .  A
N1122     Cu1128   2.057   1_556  S
C1123      C1124   1.380       .  A
C1123      H1126   1.082       .  S
C1124      C1224   1.471       .  S
C1124      C1125   1.384       .  A
C1125      H1127   1.082       .  S
Cu1129     N1139   2.073       .  S
Cu1130     N1132   2.075       .  S
Cu1130     N1138   2.075       .  S
N1131      N1132   1.322       .  A
N1131      C1135   1.342       .  A
N1132      C1133   1.345       .  A
C1133      C1134   1.385       .  A
C1133      H1136   1.082       .  S
C1134      C1217   1.475       .  S
C1134      C1135   1.382       .  A
C1135      H1137   1.082       .  S
N1138      C1142   1.346       .  A
N1139      C1140   1.343       .  A
C1140      C1141   1.386   1_556  A
C1140      H1143   1.082       .  S
C1141      C1154   1.485       .  S
C1142      H1144   1.081       .  S
C1145      C1184   1.477       .  S
C1145      C1146   1.409       .  A
C1145      C1150   1.400       .  A
C1146      C1147   1.400       .  A
C1147      C1148   1.403       .  A
C1147      H1152   1.084       .  S
C1148      C1157   1.484       .  S
C1148      C1149   1.415       .  A
C1149      C1150   1.402       .  A
C1150      H1151   1.084       .  S
C1153      C1154   1.407   1_556  A
C1153      C1158   1.397       .  A
C1153      H1160   1.082       .  S
C1155      C1156   1.399       .  A
C1155      F1162   1.357       .  S
C1156      H1161   1.083       .  S
C1157      C1158   1.403   1_554  A
C1158      F1159   1.358       .  S
C1163      C1168   1.397       .  A
C1163      H1170   1.082       .  S
C1164      C1165   1.410       .  A
C1165      C1166   1.395       .  A
C1165      F1172   1.356       .  S
C1166      C1167   1.399       .  A
C1166      H1171   1.083       .  S
C1168      F1169   1.357       .  S
C1173      C1174   1.399       .  A
C1173      C1178   1.395       .  A
C1173      H1180   1.083       .  S
C1175      C1176   1.397       .  A
C1175      F1182   1.358       .  S
C1176      H1181   1.082       .  S
C1177      C1178   1.411       .  A
C1178      F1179   1.356       .  S
C1183      H1190   1.083       .  S
C1184      C1185   1.401       .  A
C1185      C1186   1.397       .  A
C1185      F1192   1.358       .  S
C1186      C1187   1.409   1_554  A
C1186      H1191   1.082       .  S
C1187      C1188   1.410       .  A
C1193      C1194   1.404       .  A
C1193      C1198   1.398       .  A
C1193      H1200   1.083       .  S
C1194      C1195   1.406       .  A
C1195      C1196   1.397       .  A
C1195      F1202   1.357       .  S
C1196      C1197   1.406       .  A
C1196      H1201   1.083       .  S
C1197      C1198   1.408       .  A
C1198      F1199   1.357       .  S
C1203      C1204   1.402       .  A
C1203      C1208   1.397       .  A
C1203      H1210   1.083       .  S
C1204      C1205   1.406       .  A
C1205      C1206   1.395       .  A
C1205      F1212   1.357       .  S
C1206      C1207   1.404       .  A
C1206      H1211   1.083       .  S
C1207      C1208   1.409       .  A
C1208      F1209   1.358       .  S
C1213      C1214   1.405       .  A
C1213      C1218   1.395       .  A
C1213      H1220   1.083       .  S
C1214      C1215   1.409       .  A
C1215      C1216   1.398       .  A
C1215      F1222   1.357       .  S
C1216      C1217   1.403       .  A
C1216      H1221   1.083       .  S
C1217      C1218   1.405       .  A
C1218      F1219   1.357       .  S
C1223      C1224   1.401       .  A
C1223      C1228   1.397       .  A
C1223      H1230   1.083       .  S
C1224      C1225   1.404       .  A
C1225      C1226   1.398       .  A
C1225      F1232   1.358       .  S
C1226      C1227   1.407       .  A
C1226      H1231   1.083       .  S
C1227      C1228   1.410       .  A
C1228      F1229   1.357       .  S
C1233      C1234   1.403       .  A
C1233      C1238   1.395       .  A
C1233      H1240   1.083       .  S
C1234      C1235   1.405       .  A
C1235      C1236   1.395       .  A
C1235      F1242   1.357       .  S
C1236      C1237   1.404       .  A
C1236      H1241   1.083       .  S
C1237      C1238   1.408       .  A
C1238      F1239   1.358       .  S
C1243      C1244   1.405       .  A
C1243      C1248   1.395       .  A
C1243      H1250   1.083       .  S
C1244      C1245   1.409       .  A
C1245      C1246   1.397       .  A
C1245      F1252   1.357       .  S
C1246      C1247   1.403       .  A
C1246      H1251   1.083       .  S
C1247      C1248   1.406       .  A
C1248      F1249   1.357       .  S
C1253      C1254   1.405       .  A
C1253      C1258   1.399       .  A
C1253      H1260   1.083       .  S
C1254      C1255   1.406       .  A
C1255      C1256   1.395       .  A
C1255      F1262   1.358       .  S
C1256      C1257   1.405       .  A
C1256      H1261   1.083       .  S
C1257      C1258   1.407       .  A
C1258      F1259   1.357       .  S
C1263      C1264   1.406       .  A
C1263      C1268   1.399       .  A
C1263      H1270   1.083       .  S
C1264      C1265   1.408       .  A
C1265      C1266   1.396       .  A
C1265      F1272   1.358       .  S
C1266      C1267   1.404       .  A
C1266      H1271   1.083       .  S
C1267      C1268   1.407       .  A
C1268      F1269   1.357       .  S
C1273      C1274   1.408   1_556  A
C1273      C1278   1.398       .  A
C1273      H1280   1.082       .  S
C1275      C1276   1.399       .  A
C1275      F1282   1.356       .  S
C1276      H1281   1.083       .  S
C1277      C1278   1.401   1_554  A
C1278      F1279   1.357       .  S
C1283      C1288   1.396       .  A
C1283      H1290   1.082       .  S
C1284      C1285   1.409       .  A
C1285      C1286   1.398       .  A
C1285      F1292   1.356       .  S
C1286      C1287   1.403       .  A
C1286      H1291   1.083       .  S
C1288      F1289   1.358       .  S
C1293      C1298   1.398       .  A
C1293      H1300   1.083       .  S
C1294      C1295   1.409       .  A
C1295      C1296   1.399   1_455  A
C1295      F1302   1.357       .  S
C1296      C1297   1.403   1_556  A
C1296      H1301   1.083       .  S
C1298      F1299   1.357       .  S
C1303      C1308   1.399       .  A
C1303      H1310   1.082       .  S
C1304      C1305   1.408   1_556  A
C1305      C1306   1.397       .  A
C1305      F1312   1.357       .  S
C1306      C1307   1.402   1_554  A
C1306      H1311   1.083       .  S
C1308      F1309   1.357       .  S
C1313      C1314   1.404       .  A
C1313      C1318   1.399       .  A
C1313      H1320   1.083       .  S
C1314      C1315   1.407       .  A
C1315      C1316   1.397       .  A
C1315      F1322   1.357       .  S
C1316      C1317   1.403       .  A
C1316      H1321   1.083       .  S
C1317      C1318   1.408       .  A
C1318      F1319   1.358       .  S
C1323      C1324   1.404       .  A
C1323      C1328   1.399       .  A
C1323      H1330   1.083       .  S
C1324      C1325   1.408       .  A
C1325      C1326   1.399       .  A
C1325      F1332   1.357       .  S
C1326      C1327   1.405       .  A
C1326      H1331   1.083       .  S
C1327      C1328   1.409       .  A
C1328      F1329   1.357       .  S
C1333      C1334   1.403       .  A
C1333      C1338   1.398       .  A
C1333      H1340   1.083       .  S
C1334      C1335   1.406       .  A
C1335      C1336   1.397       .  A
C1335      F1342   1.357       .  S
C1336      C1337   1.405       .  A
C1336      H1341   1.083       .  S
C1337      C1338   1.410       .  A
C1338      F1339   1.358       .  S
C1343      C1344   1.408       .  A
C1343      C1348   1.400       .  A
C1343      H1350   1.083       .  S
C1344      C1345   1.409       .  A
C1345      C1346   1.395       .  A
C1345      F1352   1.355       .  S
C1346      C1347   1.402       .  A
C1346      H1351   1.083       .  S
C1347      C1348   1.406       .  A
C1348      F1349   1.358       .  S
C1353      C1354   1.405       .  A
C1353      C1358   1.398       .  A
C1353      H1360   1.083       .  S
C1354      C1355   1.405       .  A
C1355      C1356   1.397       .  A
C1355      F1362   1.357       .  S
C1356      C1357   1.406       .  A
C1356      H1361   1.083       .  S
C1357      C1358   1.409       .  A
C1358      F1359   1.358       .  S
C1363      C1364   1.405       .  A
C1363      C1368   1.402       .  A
C1363      H1370   1.083       .  S
C1364      C1365   1.406       .  A
C1365      C1366   1.396       .  A
C1365      F1372   1.357       .  S
C1366      C1367   1.405       .  A
C1366      H1371   1.083       .  S
C1367      C1368   1.410       .  A
C1368      F1369   1.357       .  S
C1373      C1374   1.405       .  A
C1373      C1378   1.395       .  A
C1373      H1380   1.082       .  S
C1375      C1376   1.400       .  A
C1375      F1382   1.357       .  S
C1376      H1381   1.083       .  S
C1377      C1378   1.403       .  A
C1378      F1379   1.357       .  S
C1383      C1384   1.403       .  A
C1383      C1388   1.396       .  A
C1383      H1390   1.083       .  S
C1384      C1385   1.407       .  A
C1385      C1386   1.396       .  A
C1385      F1392   1.357       .  S
C1386      C1387   1.405       .  A
C1386      H1391   1.083       .  S
C1387      C1388   1.408       .  A
C1388      F1389   1.358       .  S
C1393      C1394   1.405       .  A
C1393      C1398   1.398       .  A
C1393      H1400   1.083       .  S
C1394      C1395   1.407       .  A
C1395      C1396   1.396       .  A
C1395      F1402   1.358       .  S
C1396      C1397   1.404       .  A
C1396      H1401   1.083       .  S
C1397      C1398   1.408       .  A
C1398      F1399   1.357       .  S
C1403      C1408   1.398       .  A
C1403      H1410   1.082       .  S
C1404      C1405   1.410       .  A
C1405      C1406   1.398       .  A
C1405      F1412   1.356       .  S
C1406      C1407   1.402       .  A
C1406      H1411   1.083       .  S
C1408      F1409   1.357       .  S
C1413      C1414   1.405       .  A
C1413      C1418   1.397       .  A
C1413      H1420   1.083       .  S
C1414      C1415   1.410       .  A
C1415      C1416   1.400       .  A
C1415      F1422   1.357       .  S
C1416      C1417   1.403       .  A
C1416      H1421   1.083       .  S
C1417      C1418   1.407       .  A
C1418      F1419   1.357       .  S
C1423      C1424   1.404       .  A
C1423      C1428   1.400       .  A
C1423      H1430   1.083       .  S
C1424      C1425   1.407       .  A
C1425      C1426   1.398       .  A
C1425      F1432   1.357       .  S
C1426      C1427   1.404       .  A
C1426      H1431   1.083       .  S
C1427      C1428   1.409       .  A
C1428      F1429   1.358       .  S
C1433      C1434   1.404   1_565  A
C1433      C1438   1.400       .  A
C1433      H1440   1.083       .  S
C1435      C1436   1.399   1_545  A
C1435      F1442   1.358       .  S
C1436      H1441   1.082       .  S
C1437      C1438   1.409       .  A
C1438      F1439   1.356       .  S
C1443      C1444   1.404       .  A
C1443      C1448   1.396       .  A
C1443      H1450   1.083       .  S
C1444      C1445   1.406       .  A
C1445      C1446   1.398       .  A
C1445      F1452   1.357       .  S
C1446      C1447   1.405       .  A
C1446      H1451   1.083       .  S
C1447      C1448   1.408       .  A
C1448      F1449   1.358       .  S
C1453      C1454   1.402       .  A
C1453      C1458   1.397       .  A
C1453      H1460   1.083       .  S
C1454      C1455   1.406       .  A
C1455      C1456   1.399       .  A
C1455      F1462   1.358       .  S
C1456      C1457   1.407       .  A
C1456      H1461   1.082       .  S
C1457      C1458   1.410       .  A
C1458      F1459   1.356       .  S
C1463      C1464   1.407       .  A
C1463      C1468   1.400       .  A
C1463      H1470   1.082       .  S
C1465      C1466   1.398       .  A
C1465      F1472   1.357       .  S
C1466      H1471   1.083       .  S
C1467      C1468   1.405       .  A
C1468      F1469   1.357       .  S
C1473      C1474   1.406       .  A
C1473      C1478   1.397       .  A
C1473      H1480   1.083       .  S
C1474      C1475   1.410       .  A
C1475      C1476   1.398       .  A
C1475      F1482   1.357       .  S
C1476      C1477   1.402       .  A
C1476      H1481   1.083       .  S
C1477      C1478   1.404       .  A
C1478      F1479   1.357       .  S
C1483      C1484   1.405       .  A
C1483      C1488   1.400       .  A
C1483      H1490   1.083       .  S
C1484      C1485   1.410       .  A
C1485      C1486   1.400       .  A
C1485      F1492   1.357       .  S
C1486      C1487   1.404       .  A
C1486      H1491   1.083       .  S
C1487      C1488   1.407       .  A
C1488      F1489   1.357       .  S
C1493      C1494   1.404       .  A
C1493      C1498   1.398       .  A
C1493      H1500   1.083       .  S
C1494      C1495   1.406       .  A
C1495      C1496   1.397       .  A
C1495      F1502   1.357       .  S
C1496      C1497   1.405       .  A
C1496      H1501   1.083       .  S
C1497      C1498   1.408       .  A
C1498      F1499   1.358       .  S
C1503      C1504   1.407       .  A
C1503      C1508   1.399       .  A
C1503      H1510   1.083       .  S
C1504      C1505   1.409       .  A
C1505      C1506   1.398       .  A
C1505      F1512   1.357       .  S
C1506      C1507   1.403       .  A
C1506      H1511   1.083       .  S
C1507      C1508   1.406       .  A
C1508      F1509   1.357       .  S
