geometry optimzed in LAMMPS
_audit_creation_date              2020-11-30 
_audit_creation_method            'lammps2cif' 
_symmetry_space_group_name_H-M    'P1' 
_symmetry_Int_Tables_number       1 
_symmetry_cell_setting            triclinic 
loop_ 
_symmetry_equiv_pos_as_xyz 
  x,y,z 
_cell_length_a                    40.45296432508853 
_cell_length_b                    40.53926611693538 
_cell_length_c                    39.88142270642819 
_cell_angle_alpha                 90.21899913591871 
_cell_angle_beta                  89.98192518505854 
_cell_angle_gamma                 90.01704878454059 
loop_ 
_atom_site_label 
_atom_site_type_symbol 
_atom_site_fract_x 
_atom_site_fract_y 
_atom_site_fract_z 
_atom_site_charge 
C1          C  0.26554703  0.28321707  0.50001152     0.00080
C2          C  0.28829957  0.25832146  0.50393127     0.00080
C3          C  0.28902961  0.45902834  0.30957117     0.00080
C4          C  0.26634078  0.46200895  0.33551740     0.00080
C5          C  0.46258603  0.27406049  0.28574008     0.00080
C6          C  0.46334891  0.25578530  0.31546645     0.00080
C7          C  0.17292634  0.15267439  0.00160320     0.00080
C8          C  0.14379413  0.17058260  0.00186654     0.00080
C9          C  0.96798165  0.16984174  0.19099006     0.00080
C10         C  0.97019228  0.14495807  0.21463012     0.00080
C11         C  0.15043472  0.96302659  0.20207748     0.00080
C12         C  0.17570133  0.96563445  0.17870964     0.00080
C13         C  0.65565656  0.29155555  0.50526429     0.00080
C14         C  0.63382524  0.26540755  0.50081440     0.00080
C15         C  0.28416418  0.67015989  0.49477977     0.00080
C16         C  0.26073857  0.64578304  0.49900521     0.00080
C17         C  0.46534453  0.62844193  0.31482751     0.00080
C18         C  0.46257973  0.65727797  0.33377370     0.00080
C19         C  0.67328997  0.46353066  0.31381520     0.00080
C20         C  0.64880776  0.46094265  0.28997179     0.00080
C21         C  0.46419644  0.28568583  0.69871462     0.00080
C22         C  0.46567035  0.25998762  0.67638066     0.00080
C23         C  0.24787238  0.46426778  0.68474594     0.00080
C24         C  0.27084550  0.46463348  0.70992201     0.00080
C25         C  0.13840269  0.76158998  0.99967675     0.00080
C26         C  0.16305502  0.78561632  0.99789502     0.00080
C27         C  0.78392300  0.16592221  0.00014581     0.00080
C28         C  0.75800260  0.14298585  0.99937623     0.00080
C29         C  0.96762397  0.16492712  0.82424161     0.00080
C30         C  0.96159467  0.13934832  0.80062139     0.00080
C31         C  0.14358684  0.95994146  0.80355661     0.00080
C32         C  0.17078196  0.95935474  0.82566111     0.00080
C33         C  0.96470403  0.78828839  0.20224181     0.00080
C34         C  0.96737633  0.76203253  0.17935731     0.00080
C35         C  0.78815886  0.96465519  0.19958893     0.00080
C36         C  0.76468484  0.96400553  0.17422276     0.00080
N37         N  0.29155499  0.50487351  0.96789534    -0.06600
N38         N  0.31026230  0.50957056  0.94139132    -0.58720
N39         N  0.26604112  0.52096530  0.04528712    -0.06280
N40         N  0.26954370  0.53973949  0.07207178    -0.60850
N41         N  0.28950282  0.49867485  0.04403609    -0.05880
N42         N  0.30948198  0.50169852  0.06995949    -0.58700
N43         N  0.26796767  0.52694865  0.96904609    -0.05560
N44         N  0.26996894  0.54716373  0.94342198    -0.61200
C45         C  0.29662554  0.53623292  0.92646848     0.95580
C46         C  0.29683419  0.52759323  0.08719191     0.95350
N47         N  0.16298409  0.50236565  0.03828916    -0.06790
N48         N  0.13715166  0.51607939  0.05376055    -0.59300
N49         N  0.19185320  0.52690037  0.96584717    -0.04910
N50         N  0.18605082  0.55329675  0.94771223    -0.60550
N51         N  0.16756958  0.50544204  0.96279442    -0.06820
N52         N  0.14443187  0.51752527  0.94286203    -0.59570
N53         N  0.18879135  0.52203394  0.04162162    -0.04550
N54         N  0.18149870  0.54793704  0.05995376    -0.60640
Mn55       Mn  0.22880944  0.52448274  0.00567855     1.18440
C56         C  0.14959713  0.54415055  0.06801536     0.97660
C57         C  0.15669777  0.54717389  0.93312990     0.98320
N58         N  0.28977974  0.42248461  0.03743473    -0.06840
N59         N  0.30671282  0.41888531  0.06533795    -0.63140
N60         N  0.26939331  0.40658072  0.95740133    -0.05640
N61         N  0.27212146  0.39145520  0.92816264    -0.63820
N62         N  0.29236437  0.42919599  0.96046259    -0.06340
N63         N  0.31117283  0.42997976  0.93346784    -0.63410
N64         N  0.26657998  0.39997749  0.03520685    -0.05240
N65         N  0.26725507  0.38053349  0.06169768    -0.64100
Mn66       Mn  0.29196898  0.46363499  0.00254797     1.10660
C67         C  0.29266394  0.39244641  0.08021350     0.98880
C68         C  0.29838511  0.40620725  0.91341597     0.98960
N69         N  0.16730273  0.42516004  0.95697923    -0.06350
N70         N  0.14278809  0.41328128  0.93846287    -0.61720
N71         N  0.18893697  0.39823595  0.03073202    -0.05670
N72         N  0.18121811  0.37026827  0.04526655    -0.58450
N73         N  0.16376535  0.41900901  0.03182215    -0.06980
N74         N  0.13814078  0.40449600  0.04664681    -0.61290
N75         N  0.19256159  0.40464956  0.95574265    -0.05970
N76         N  0.18595988  0.37940952  0.93615242    -0.58480
Mn77       Mn  0.16423742  0.46304211  0.99772188     1.20190
Mn78       Mn  0.22976896  0.40185941  0.99483633     1.10090
Cl79       Cl  0.22814080  0.46314094  0.00063837    -0.86450
C80         C  0.15497197  0.38477825  0.92531331     0.95890
C81         C  0.14988560  0.37431977  0.05562001     0.95680
N82         N  0.63878275  0.42818404  0.96348575    -0.06600
N83         N  0.62090843  0.42988148  0.93594856    -0.58720
N84         N  0.66429260  0.40071537  0.03951068    -0.06280
N85         N  0.66455215  0.38352387  0.06766930    -0.60850
N86         N  0.64120205  0.42339886  0.04081966    -0.05880
N87         N  0.62530112  0.42213896  0.06952603    -0.58700
N88         N  0.66198448  0.40580625  0.96043126    -0.05560
N89         N  0.66057685  0.39186424  0.93042424    -0.61200
C90         C  0.63481104  0.40722777  0.91549627     0.95580
C91         C  0.63999288  0.39729545  0.08619782     0.95350
N92         N  0.76697535  0.41800626  0.03489959    -0.06790
N93         N  0.79272648  0.40333106  0.04930587    -0.59300
N94         N  0.73824059  0.40337138  0.95924000    -0.04910
N95         N  0.74455006  0.37808258  0.93962375    -0.60550
N96         N  0.76342736  0.42402991  0.95985476    -0.06820
N97         N  0.78762746  0.41211316  0.94094604    -0.59570
N98         N  0.74166132  0.39741425  0.03446044    -0.04550
N99         N  0.74943649  0.36941548  0.04903063    -0.60640
Mn100      Mn  0.70101818  0.40116893  0.99851464     1.18440
C101        C  0.78102686  0.37322856  0.05872498     0.99460
C102        C  0.77515489  0.38362454  0.92789890     0.98320
N103        N  0.64098687  0.49927237  0.04502418    -0.06840
N104        N  0.62097154  0.50285365  0.07082830    -0.63140
N105        N  0.66302170  0.52535542  0.96870010    -0.05640
N106        N  0.66034050  0.54448718  0.94214851    -0.63820
N107        N  0.63943011  0.50321340  0.96899206    -0.06340
N108        N  0.62008179  0.50666668  0.94287408    -0.63410
N109        N  0.66432205  0.52165443  0.04566900    -0.05240
N110        N  0.66077508  0.54101194  0.07203035    -0.64100
Mn111      Mn  0.63900908  0.46322794  0.00473611     1.10660
C112        C  0.63360811  0.52904840  0.08758445     0.98880
C113        C  0.63326554  0.53250931  0.92639034     0.98960
N114        N  0.76495186  0.50541376  0.96580816    -0.06350
N115        N  0.78939200  0.51885246  0.94828161    -0.61720
N116        N  0.74118775  0.52113935  0.04315615    -0.05670
N117        N  0.74863072  0.54713169  0.06119404    -0.58450
N118        N  0.76664974  0.50089241  0.04086185    -0.06980
N119        N  0.79229806  0.51421645  0.05673964    -0.61290
N120        N  0.74004303  0.52633362  0.96767085    -0.05970
N121        N  0.74660567  0.55345747  0.95096245    -0.58480
Mn122      Mn  0.76665923  0.46207953  0.00047990     1.20190
Mn123      Mn  0.70196495  0.52394011  0.00632032     1.10090
Cl124      Cl  0.70281275  0.46256467  0.00278886    -0.86450
C125        C  0.77718498  0.54863789  0.93873742     0.95890
C126        C  0.78026963  0.54288234  0.06994560     0.95680
C127        C  0.84669650  0.26126929  0.90945725     0.00080
C128        C  0.87207119  0.25965324  0.88527193     0.00080
C129        C  0.85162274  0.66538660  0.09286086     0.00080
C130        C  0.87162880  0.66542709  0.12213821     0.00080
N131        N  0.92891258  0.42252455  0.80168116    -0.06600
N132        N  0.91281012  0.41067097  0.82799358    -0.58720
N133        N  0.00119279  0.39833298  0.77248385    -0.06280
N134        N  0.01868367  0.37167609  0.77841020    -0.60850
N135        N  0.00345383  0.41947049  0.79754446    -0.05880
N136        N  0.02213151  0.40661207  0.82152514    -0.58700
N137        N  0.92630637  0.40159336  0.77637673    -0.05560
N138        N  0.90778592  0.37624814  0.78461982    -0.61200
C139        C  0.89896354  0.38220755  0.81655256     0.95580
C140        C  0.03191445  0.37694609  0.80881914     0.95350
N141        N  0.99862582  0.42193065  0.67169738    -0.06790
N142        N  0.02590178  0.42005313  0.65375171    -0.59300
N143        N  0.92267436  0.40144493  0.69799640    -0.04910
N144        N  0.89594047  0.38301546  0.69589091    -0.60550
N145        N  0.92286534  0.42356532  0.67415413    -0.06820
N146        N  0.89627457  0.42091115  0.65536905    -0.59570
N147        N  0.99874873  0.39954421  0.69535760    -0.04550
N148        N  0.02608752  0.38197024  0.69404961    -0.60640
Mn149      Mn  0.96200231  0.39969232  0.73533126     1.18440
C150        C  0.04272132  0.39480138  0.66782079     0.97660
C151        C  0.87974075  0.39539243  0.66903861     0.98320
N152        N  0.00657190  0.50057376  0.79626012    -0.06840
N153        N  0.02633738  0.51244300  0.81991929    -0.63140
N154        N  0.93129363  0.52458796  0.77608833    -0.05640
N155        N  0.91559838  0.55189274  0.78373083    -0.63820
N156        N  0.93262691  0.50458991  0.80207759    -0.06340
N157        N  0.91832125  0.51904333  0.82838240    -0.63410
N158        N  0.00548959  0.52136868  0.77094930    -0.05240
N159        N  0.02480013  0.54675763  0.77655501    -0.64100
Mn160      Mn  0.96789522  0.46174307  0.80056023     1.10660
C161        C  0.03813480  0.54106080  0.80680920     0.98880
C162        C  0.90742555  0.54841313  0.81611826     0.98960
N163        N  0.92357612  0.49905061  0.67446535    -0.06350
N164        N  0.89514580  0.50013093  0.65842245    -0.61720
N165        N  0.00144872  0.52064587  0.69344475    -0.05670
N166        N  0.02838587  0.53854934  0.68964461    -0.58450
N167        N  0.99975806  0.49786167  0.67016870    -0.06980
N168        N  0.02546399  0.49964226  0.64999773    -0.61290
N169        N  0.92466402  0.52176886  0.69798188    -0.05970
N170        N  0.89692518  0.53897971  0.69829587    -0.58480
Mn171      Mn  0.96122286  0.46063435  0.67129046     1.20190
Mn172      Mn  0.96561350  0.52259800  0.73432006     1.10090
Cl173      Cl  0.96407279  0.46118390  0.73568117    -0.86450
C174        C  0.87882565  0.52532498  0.67326829     0.95890
C175        C  0.04308014  0.52530126  0.66223643     0.95680
C176        C  0.06636894  0.25527702  0.87536150     0.00080
C177        C  0.08996588  0.26039781  0.90012091     0.00080
C178        C  0.86091921  0.67270515  0.87254006     0.00080
C179        C  0.83624480  0.67228733  0.89668410     0.00080
C180        C  0.06154816  0.66355490  0.87655566     0.00080
C181        C  0.08787632  0.66737350  0.89915276     0.00080
C182        C  0.87097559  0.25239742  0.12368248     0.00080
C183        C  0.85227193  0.25222250  0.09405645     0.00080
N184        N  0.92204754  0.50204544  0.19882846    -0.06600
N185        N  0.90127257  0.51087586  0.17486739    -0.58720
N186        N  0.99775798  0.52701783  0.22201960    -0.06280
N187        N  0.01658782  0.55263777  0.21578420    -0.60850
N188        N  0.99791692  0.50584498  0.19689750    -0.05880
N189        N  0.01654890  0.51789588  0.17232752    -0.58700
N190        N  0.92240868  0.52468289  0.22255524    -0.05560
N191        N  0.90190574  0.54879865  0.21537119    -0.61200
C192        C  0.88867129  0.54012478  0.18564358     0.95580
C193        C  0.02856909  0.54687124  0.18501564     0.95350
N194        N  0.00093875  0.50676470  0.32247916    -0.06790
N195        N  0.02950488  0.50860441  0.33833982    -0.59300
N196        N  0.92307721  0.52703496  0.29922193    -0.04910
N197        N  0.89475386  0.54302378  0.29790672    -0.60550
N198        N  0.92285790  0.50486361  0.32311751    -0.06820
N199        N  0.89385582  0.50512502  0.33847277    -0.59570
N200        N  0.99981847  0.52881798  0.29852968    -0.04550
N201        N  0.02746212  0.54615564  0.29760966    -0.60640
Mn202      Mn  0.96080178  0.52743674  0.26085793     1.18440
C203        C  0.04574291  0.53351147  0.32279817     0.97660
C204        C  0.87673144  0.52917628  0.32245329     0.98320
N205        N  0.99931492  0.42401897  0.19833707    -0.06840
N206        N  0.01587166  0.41147849  0.17258907    -0.63140
N207        N  0.92524074  0.40120308  0.22465186    -0.05640
N208        N  0.90821494  0.37441241  0.21729844    -0.63820
N209        N  0.92489442  0.42195874  0.19924206    -0.06340
N210        N  0.90791195  0.40894429  0.17399171    -0.63410
N211        N  0.00010601  0.40315365  0.22366672    -0.05240
N212        N  0.01779691  0.37698846  0.21592707    -0.64100
Mn213      Mn  0.96117163  0.46361964  0.19721188     1.10660
C214        C  0.02804025  0.38257958  0.18438242     0.98880
C215        C  0.89716123  0.37944454  0.18585436     0.98960
N216        N  0.92604494  0.42860038  0.32670566    -0.06350
N217        N  0.90013354  0.42662571  0.34654671    -0.61720
N218        N  0.00260532  0.40667010  0.30207094    -0.05670
N219        N  0.02947246  0.38828809  0.30487926    -0.58450
N220        N  0.00240668  0.43000993  0.32503194    -0.06980
N221        N  0.02901235  0.42787302  0.34405870    -0.61290
N222        N  0.92527856  0.40513863  0.30394888    -0.05970
N223        N  0.89855828  0.38669456  0.30799140    -0.58480
Mn224      Mn  0.96312817  0.46772842  0.32585852     1.20190
Mn225      Mn  0.96323101  0.40343683  0.26395288     1.10090
Cl226      Cl  0.96215267  0.46539479  0.26176093    -0.86450
C227        C  0.88307115  0.40037443  0.33489753     0.95890
C228        C  0.04560782  0.40162348  0.33139485     0.95680
N229        N  0.43345117  0.29102573  0.95742651    -0.06600
N230        N  0.43358238  0.30985110  0.93074855    -0.58720
N231        N  0.40719648  0.27013305  0.03480765    -0.06280
N232        N  0.38958612  0.27256010  0.06266398    -0.60850
N233        N  0.43109400  0.29207391  0.03495409    -0.05880
N234        N  0.43019255  0.30974991  0.06285499    -0.58700
N235        N  0.40934109  0.26945677  0.95590681    -0.05560
N236        N  0.39248916  0.27331012  0.92769325    -0.61200
C237        C  0.40801978  0.29883563  0.91223085     0.95580
C238        C  0.40403195  0.29757938  0.08000523     0.95350
N239        N  0.42176733  0.16727815  0.03442686    -0.06790
N240        N  0.40846797  0.14342463  0.05265251    -0.59300
N241        N  0.40420266  0.19191809  0.95784189    -0.04910
N242        N  0.37792039  0.18460548  0.93984198    -0.60550
N243        N  0.42456883  0.16649554  0.95906959    -0.06820
N244        N  0.41168317  0.14135384  0.94231491    -0.59570
N245        N  0.40161521  0.19287288  0.03364422    -0.04550
N246        N  0.37506721  0.18722413  0.05180512    -0.60640
Mn247      Mn  0.40476811  0.23148884  0.99543189     1.18440
C248        C  0.37975562  0.15669249  0.06400411     0.97660
C249        C  0.38288221  0.15325285  0.92981535     0.98320
N250        N  0.50689218  0.28803323  0.03615640    -0.06840
N251        N  0.50973529  0.30702047  0.06276030    -0.63140
N252        N  0.53152160  0.26162120  0.96151120    -0.05640
N253        N  0.55184883  0.26089359  0.93573037    -0.63820
N254        N  0.51017432  0.28583459  0.95882096    -0.06340
N255        N  0.51539317  0.30209856  0.93061174    -0.63410
N256        N  0.52775076  0.26342861  0.03770753    -0.05240
N257        N  0.54552421  0.26504224  0.06518879    -0.64100
Mn258      Mn  0.47031613  0.29061727  0.99668493     1.10660
C259        C  0.53397463  0.29231121  0.08056734     0.98880
C260        C  0.54187588  0.28647816  0.91692296     0.98960
N261        N  0.50580367  0.16232373  0.96212522    -0.06350
N262        N  0.51824035  0.13765404  0.94402796    -0.61720
N263        N  0.52444785  0.18733089  0.03910821    -0.05670
N264        N  0.55019568  0.17907810  0.05726791    -0.58450
N265        N  0.50294779  0.16293490  0.03755135    -0.06980
N266        N  0.51480427  0.13710233  0.05396864    -0.61290
N267        N  0.52740310  0.18653164  0.96342509    -0.05970
N268        N  0.55375643  0.17955736  0.94589875    -0.58480
Mn269      Mn  0.46364985  0.16371104  0.99824591     1.20190
Mn270      Mn  0.52793908  0.22491758  0.00065202     1.10090
Cl271      Cl  0.46653194  0.22745905  0.99772546    -0.86450
C272        C  0.54801845  0.14946752  0.93337962     0.95890
C273        C  0.54401269  0.14797834  0.06675129     0.95680
N274        N  0.42528256  0.92043164  0.67867709    -0.06600
N275        N  0.42495162  0.89136381  0.66368583    -0.58720
N276        N  0.40105283  0.99815305  0.69652842    -0.06280
N277        N  0.38261347  0.02474605  0.69299891    -0.60850
N278        N  0.42335813  0.99661335  0.67277933    -0.05880
N279        N  0.42057564  0.02195268  0.65250155    -0.58700
N280        N  0.40278817  0.92149394  0.70244667    -0.05560
N281        N  0.38649067  0.89320758  0.70387496    -0.61200
C282        C  0.40050195  0.87467800  0.67938305     0.95580
C283        C  0.39505637  0.03937364  0.66528106     0.95350
N284        N  0.42370718  0.00583673  0.79881241    -0.06790
N285        N  0.41183896  0.02497470  0.82298577    -0.59300
N286        N  0.40179333  0.92954602  0.78014414    -0.04910
N287        N  0.37614612  0.91135246  0.78802902    -0.60550
N288        N  0.42286854  0.93138987  0.80528971    -0.06820
N289        N  0.41090648  0.91470248  0.83130957    -0.59570
N290        N  0.40195439  0.00402678  0.77421479    -0.04550
N291        N  0.37589906  0.02237774  0.78087743    -0.60640
Mn292      Mn  0.40132555  0.96328195  0.73802923     1.18440
C293        C  0.38225170  0.03581385  0.81110623     0.97660
C294        C  0.38203759  0.90167676  0.81958528     0.98320
N295        N  0.50010457  0.99913561  0.67229708    -0.06840
N296        N  0.50109590  0.02653588  0.65440952    -0.63140
N297        N  0.52372918  0.92270632  0.69903007    -0.05640
N298        N  0.54149193  0.89533196  0.69684701    -0.63820
N299        N  0.50109758  0.92312430  0.67557810    -0.06340
N300        N  0.50290952  0.89647990  0.65699216    -0.63410
N301        N  0.52343214  0.99953547  0.69515327    -0.05240
N302        N  0.54060687  0.02711594  0.69337790    -0.64100
Mn303      Mn  0.46237462  0.95991248  0.67350834     1.10660
C304        C  0.52660677  0.04387331  0.66786542     0.98880
C305        C  0.52802582  0.87915729  0.67024581     0.98960
N306        N  0.50477710  0.93067255  0.80338213    -0.06350
N307        N  0.51662665  0.91391223  0.82927148    -0.61720
N308        N  0.52561841  0.00357088  0.77155346    -0.05670
N309        N  0.55173256  0.02237711  0.77583416    -0.58450
N310        N  0.50567741  0.00526925  0.79761486    -0.06980
N311        N  0.51936610  0.02444690  0.82084293    -0.61290
N312        N  0.52549251  0.92844461  0.77788851    -0.05970
N313        N  0.55087595  0.90967745  0.78565404    -0.58480
Mn314      Mn  0.46432952  0.96839643  0.80249503     1.20190
Mn315      Mn  0.52516386  0.96319198  0.73572720     1.10090
Cl316      Cl  0.46329853  0.96362901  0.73772861    -0.86450
C317        C  0.54499487  0.90016690  0.81741865     0.95890
C318        C  0.54784375  0.03559580  0.80646306     0.95680
C319        C  0.25959056  0.85560311  0.87807486     0.00080
C320        C  0.25906631  0.82648008  0.89701544     0.00080
C321        C  0.67210154  0.06141050  0.87348735     0.00080
C322        C  0.66934385  0.08091952  0.90182200     0.00080
C323        C  0.66794559  0.84066377  0.90397190     0.00080
C324        C  0.66872202  0.86643328  0.88071846     0.00080
N325        N  0.42537967  0.75604406  0.96450814    -0.06600
N326        N  0.41267683  0.77973125  0.94562915    -0.58720
N327        N  0.40581129  0.73198073  0.04117311    -0.06280
N328        N  0.37838703  0.73912034  0.05720766    -0.60850
N329        N  0.42555467  0.75787316  0.03996534    -0.05880
N330        N  0.41069849  0.78336211  0.05458796    -0.58700
N331        N  0.40482730  0.73079098  0.96531802    -0.05560
N332        N  0.37866470  0.73645471  0.94663202    -0.61200
C333        C  0.38375760  0.76679444  0.93415858     0.95580
C334        C  0.38132782  0.77109054  0.06559720     0.95350
N335        N  0.43238562  0.63237400  0.04253582    -0.06790
N336        N  0.43198776  0.61502528  0.07048047    -0.59300
N337        N  0.40787392  0.65451302  0.96503126    -0.04910
N338        N  0.38976810  0.65344710  0.93762888    -0.60550
N339        N  0.43116484  0.63207623  0.96379528    -0.06820
N340        N  0.42936867  0.61530370  0.93530432    -0.59570
N341        N  0.40941396  0.65519747  0.04356676    -0.04550
N342        N  0.39289573  0.65373671  0.07220153    -0.60640
Mn343      Mn  0.40657557  0.69272939  0.00393441     1.18440
C344        C  0.40706180  0.62827373  0.08881582     0.97660
C345        C  0.40318125  0.62887169  0.91916910     0.98320
N346        N  0.50795976  0.75999656  0.03969447    -0.06840
N347        N  0.51989714  0.78517998  0.05735671    -0.63140
N348        N  0.52852669  0.73471752  0.96361569    -0.05640
N349        N  0.55346085  0.74148989  0.94371651    -0.63820
N350        N  0.50663386  0.75874198  0.96345622    -0.06340
N351        N  0.51720944  0.78281830  0.94371524    -0.63410
N352        N  0.52957441  0.73563092  0.03995539    -0.05240
N353        N  0.55549283  0.74333446  0.05836275    -0.64100
Mn354      Mn  0.46642888  0.75927265  0.00198562     1.10660
C355        C  0.54921210  0.77398192  0.06972866     0.98880
C356        C  0.54618107  0.77119917  0.93086845     0.98960
N357        N  0.50771164  0.63500587  0.96267999    -0.06350
N358        N  0.50916313  0.61828977  0.93429371    -0.61720
N359        N  0.53023221  0.65888326  0.04054860    -0.05670
N360        N  0.54692215  0.65940005  0.06889617    -0.58450
N361        N  0.50843308  0.63491007  0.04068547    -0.06980
N362        N  0.50977801  0.61867744  0.06923910    -0.61290
N363        N  0.52981765  0.65872255  0.96269856    -0.05970
N364        N  0.54685406  0.65858345  0.93442858    -0.58480
Mn365      Mn  0.46998894  0.63203783  0.00230557     1.20190
Mn366      Mn  0.53014456  0.69667682  0.00179283     1.10090
Cl367      Cl  0.46826565  0.69544829  0.00258804    -0.86450
C368        C  0.53389991  0.63303704  0.91701985     0.95890
C369        C  0.53416222  0.63402019  0.08648443     0.95680
C370        C  0.25680733  0.83877900  0.09289291     0.00080
C371        C  0.25929447  0.86233104  0.11845880     0.00080
C372        C  0.26052292  0.08068494  0.91052595     0.00080
C373        C  0.26108758  0.05377510  0.88828846     0.00080
C374        C  0.67268344  0.86844317  0.11968255     0.00080
C375        C  0.67264955  0.84325372  0.09625065     0.00080
N376        N  0.42320266  0.92427945  0.19893102    -0.06600
N377        N  0.41176183  0.90653168  0.17346505    -0.58720
N378        N  0.40149369  0.99881085  0.22467273    -0.06280
N379        N  0.37613737  0.01804477  0.21873272    -0.60850
N380        N  0.42250945  0.99910067  0.19944758    -0.05880
N381        N  0.41081820  0.01829641  0.17523760    -0.58700
N382        N  0.40149770  0.92403299  0.22367509    -0.05560
N383        N  0.37570714  0.90575946  0.21573652    -0.61200
C384        C  0.38236419  0.89458712  0.18461803     0.95580
C385        C  0.38200910  0.03032386  0.18809948     0.95350
N386        N  0.42487509  0.00091897  0.32551014    -0.06790
N387        N  0.42465931  0.02952983  0.34148087    -0.59300
N388        N  0.40188825  0.92369764  0.30205767    -0.04910
N389        N  0.38482958  0.89603852  0.30239471    -0.60550
N390        N  0.42406149  0.92374420  0.32601739    -0.06820
N391        N  0.42261513  0.89596614  0.34309213    -0.59570
N392        N  0.40229338  0.00067202  0.30187452    -0.04550
N393        N  0.38618384  0.02901514  0.30140429    -0.60640
Mn394      Mn  0.40112555  0.96164605  0.26350343     1.18440
C395        C  0.40036552  0.04688225  0.32624288     0.97660
C396        C  0.39782671  0.87890626  0.32818630     0.98320
N397        N  0.50366294  0.99958690  0.20136372    -0.06840
N398        N  0.51561826  0.01896360  0.17755469    -0.63140
N399        N  0.52516817  0.92431623  0.22539585    -0.05640
N400        N  0.55207237  0.90751609  0.21854265    -0.63820
N401        N  0.50522692  0.92517039  0.19925902    -0.06340
N402        N  0.51940382  0.90942789  0.17372109    -0.63410
N403        N  0.52444239  0.99884803  0.22677199    -0.05240
N404        N  0.54994096  0.01796805  0.22115866    -0.64100
Mn405      Mn  0.46363902  0.96199153  0.19844422     1.10660
C406        C  0.54429466  0.03085213  0.19075517     0.98880
C407        C  0.54833887  0.89781633  0.18659352     0.98960
N408        N  0.50030542  0.92299717  0.32692983    -0.06350
N409        N  0.50281159  0.89648810  0.34581432    -0.61720
N410        N  0.52400452  0.99873263  0.30389625    -0.05670
N411        N  0.54333364  0.02480669  0.30651359    -0.58450
N412        N  0.50122765  0.99908022  0.32722072    -0.06980
N413        N  0.50448908  0.02543604  0.34630891    -0.61290
N414        N  0.52294408  0.92260708  0.30337559    -0.05970
N415        N  0.54139027  0.89589338  0.30568214    -0.58480
Mn416      Mn  0.46240946  0.96171779  0.32786805     1.20190
Mn417      Mn  0.52449817  0.96097729  0.26509233     1.10090
Cl418      Cl  0.46287916  0.96135743  0.26322858    -0.86450
C419        C  0.52873238  0.87989927  0.33247418     0.95890
C420        C  0.53104839  0.04114414  0.33334371     0.95680
N421        N  0.29156726  0.92444089  0.45988833    -0.06600
N422        N  0.30854438  0.89672319  0.45721959    -0.58720
N423        N  0.26880997  0.00176021  0.43822218    -0.06280
N424        N  0.27087077  0.02914841  0.42056893    -0.60850
N425        N  0.29266154  0.00046480  0.46039036    -0.05880
N426        N  0.31155495  0.02673903  0.45845489    -0.58700
N427        N  0.26809443  0.92537190  0.43723370    -0.05560
N428        N  0.26857211  0.89846986  0.41866099    -0.61200
C429        C  0.29406682  0.88087500  0.43107982     0.95580
C430        C  0.29796741  0.04419309  0.43332067     0.95350
N431        N  0.16778973  0.00117133  0.46055294    -0.06790
N432        N  0.14329969  0.02016414  0.45012457    -0.59300
N433        N  0.19185143  0.92670202  0.43700023    -0.04910
N434        N  0.18483957  0.90952155  0.40995405    -0.60550
N435        N  0.16689287  0.92659656  0.45829640    -0.06820
N436        N  0.14177949  0.91005808  0.44482577    -0.59570
N437        N  0.19198655  0.00150020  0.43849349    -0.04550
N438        N  0.18464176  0.02082971  0.41320793    -0.60640
Mn439      Mn  0.23043899  0.96394566  0.43715961     1.18440
C440        C  0.15434242  0.03256557  0.42062533     0.97660
C441        C  0.15387306  0.89888514  0.41497795     0.98320
N442        N  0.29350670  0.00163605  0.53685405    -0.06840
N443        N  0.31027213  0.02959697  0.53693986    -0.63140
N444        N  0.27063880  0.92456750  0.56040208    -0.05640
N445        N  0.27356548  0.89720180  0.57815191    -0.63820
N446        N  0.29346435  0.92541158  0.53705610    -0.06340
N447        N  0.31232821  0.89905954  0.53831692    -0.63410
N448        N  0.27047702  0.00216284  0.56002407    -0.05240
N449        N  0.27121972  0.03054915  0.57636307    -0.64100
Mn450      Mn  0.29409069  0.96284739  0.49862410     1.10660
C451        C  0.29622122  0.04753925  0.56181907     0.98880
C452        C  0.29983789  0.88156043  0.56404101     0.98960
N453        N  0.16731323  0.92679564  0.54262063    -0.06350
N454        N  0.14137235  0.91279741  0.55735025    -0.61720
N455        N  0.19309577  0.00096250  0.56277299    -0.05670
N456        N  0.18568865  0.01956115  0.58880002    -0.58450
N457        N  0.16847695  0.00069607  0.54114241    -0.06980
N458        N  0.14372495  0.01882446  0.55263823    -0.61290
N459        N  0.19263769  0.92658539  0.56353665    -0.05970
N460        N  0.18455127  0.91192996  0.59167479    -0.58480
Mn461      Mn  0.16669475  0.96344866  0.50057357     1.20190
Mn462      Mn  0.23215446  0.96343172  0.56240242     1.10090
Cl463      Cl  0.23055389  0.96316743  0.49977102    -0.86450
C464        C  0.15279887  0.90301587  0.58785345     0.95890
C465        C  0.15514986  0.03108587  0.58210400     0.95680
N466        N  0.00144169  0.28276593  0.46228044    -0.06600
N467        N  0.02974141  0.29896868  0.46144141    -0.58720
N468        N  0.92315660  0.26034399  0.44053737    -0.06280
N469        N  0.89489357  0.26261572  0.42391250    -0.60850
N470        N  0.92499390  0.28353126  0.46336932    -0.05880
N471        N  0.89848158  0.30203201  0.46299701    -0.58700
N472        N  0.00098108  0.25964248  0.43916268    -0.05560
N473        N  0.02902327  0.25966873  0.42211110    -0.61200
C474        C  0.04672489  0.28455256  0.43605268     0.95580
C475        C  0.88004585  0.28921209  0.43814015     0.95350
N476        N  0.92398926  0.15942937  0.46240348    -0.06790
N477        N  0.90438359  0.13547016  0.45150909    -0.59300
N478        N  0.99839021  0.18323073  0.43747541    -0.04910
N479        N  0.01508844  0.17610923  0.41013340    -0.60550
N480        N  0.99845782  0.15819600  0.45849324    -0.06820
N481        N  0.01460908  0.13304756  0.44469306    -0.59570
N482        N  0.92371560  0.18399267  0.44082698    -0.04550
N483        N  0.90362536  0.17765587  0.41585380    -0.60640
Mn484      Mn  0.96151956  0.22209515  0.43877057     1.18440
C485        C  0.89118111  0.14773743  0.42278634     0.97660
C486        C  0.02559097  0.14510189  0.41489168     0.98320
N487        N  0.92460061  0.28350139  0.53985037    -0.06840
N488        N  0.89683950  0.30054704  0.54111298    -0.63140
N489        N  0.00151138  0.26119210  0.56222837    -0.05640
N490        N  0.02850119  0.26454179  0.58044630    -0.63820
N491        N  0.00032552  0.28394725  0.53907126    -0.06340
N492        N  0.02622309  0.30324537  0.54077796    -0.63410
N493        N  0.92480344  0.26064532  0.56306698    -0.05240
N494        N  0.89712065  0.26177000  0.58061527    -0.64100
Mn495      Mn  0.96291896  0.28465170  0.50105466     1.10660
C496        C  0.87982299  0.28692342  0.56676709     0.98880
C497        C  0.04344698  0.29118216  0.56679701     0.98960
N498        N  0.00196730  0.15967327  0.54137672    -0.06350
N499        N  0.02052076  0.13510559  0.55249844    -0.61720
N500        N  0.92708479  0.18421842  0.56566486    -0.05670
N501        N  0.91008640  0.17778396  0.59292014    -0.58450
N502        N  0.92720867  0.15875414  0.54502952    -0.06980
N503        N  0.91083573  0.13394570  0.55903862    -0.61290
N504        N  0.00207879  0.18401931  0.56345431    -0.05970
N505        N  0.02093690  0.17658664  0.58925737    -0.58480
Mn506      Mn  0.96294883  0.15784823  0.50181524     1.20190
Mn507      Mn  0.96397698  0.22279409  0.56426316     1.10090
Cl508      Cl  0.96293793  0.22153348  0.50149491    -0.86450
C509        C  0.03255180  0.14614534  0.58230644     0.95890
C510        C  0.89965771  0.14667847  0.58860281     0.95680
C511        C  0.83836177  0.06280739  0.29163304     0.00080
C512        C  0.86356501  0.08554667  0.29697940     0.00080
N513        N  0.63685745  0.00075711  0.46215899    -0.06600
N514        N  0.61994041  0.02850168  0.46115686    -0.58720
N515        N  0.65945226  0.92369068  0.43836015    -0.06280
N516        N  0.65919033  0.89562290  0.42143574    -0.60850
N517        N  0.63625019  0.92384120  0.46132714    -0.05880
N518        N  0.61980865  0.89575258  0.46052826    -0.58700
N519        N  0.65977325  0.00063332  0.43892862    -0.05560
N520        N  0.65887451  0.02831038  0.42159326    -0.61200
C521        C  0.63368067  0.04551739  0.43558937     0.95580
C522        C  0.63419994  0.87830376  0.43543466     0.95350
N523        N  0.76072134  0.92360604  0.45865425    -0.06790
N524        N  0.78453141  0.90443070  0.44661507    -0.59300
N525        N  0.73603915  0.99888424  0.43773031    -0.04910
N526        N  0.74258022  0.01646512  0.41097633    -0.60550
N527        N  0.76158388  0.99812856  0.45826923    -0.06820
N528        N  0.78651100  0.01462550  0.44461251    -0.59570
N529        N  0.73585378  0.92425927  0.43733279    -0.04550
N530        N  0.74192020  0.90532147  0.41131670    -0.60640
Mn531      Mn  0.69747256  0.96190428  0.43752670     1.18440
C532        C  0.77196982  0.89256004  0.41729511     0.97660
C533        C  0.77383235  0.02647615  0.41541998     0.98320
N534        N  0.63620512  0.92414877  0.53867065    -0.06840
N535        N  0.61700727  0.89807577  0.54121421    -0.63140
N536        N  0.66124841  0.99879668  0.56288850    -0.05640
N537        N  0.66055599  0.02518826  0.58225738    -0.63820
N538        N  0.63785610  0.99993940  0.54015489    -0.06340
N539        N  0.62066515  0.02734053  0.54353527    -0.63410
N540        N  0.65973849  0.92320273  0.56122563    -0.05240
N541        N  0.65709243  0.89649118  0.57972073    -0.64100
Mn542      Mn  0.63529466  0.96229377  0.50045112     1.10660
C543        C  0.63031269  0.88102037  0.56695716     0.98880
C544        C  0.63495368  0.04268602  0.57011835     0.98960
N545        N  0.76216950  0.99795473  0.54151670    -0.06350
N546        N  0.78670499  0.01576737  0.55434181    -0.61720
N547        N  0.73648977  0.92277558  0.56196773    -0.05670
N548        N  0.74323605  0.90519866  0.58869370    -0.58450
N549        N  0.76192470  0.92356381  0.54130149    -0.06980
N550        N  0.78695853  0.90706781  0.55475543    -0.61290
N551        N  0.73731856  0.99742321  0.56286440    -0.05970
N552        N  0.74395873  0.01524355  0.58950451    -0.58480
Mn553      Mn  0.76285010  0.96088094  0.49986001     1.20190
Mn554      Mn  0.69847761  0.96041691  0.56256418     1.10090
Cl555      Cl  0.69876063  0.96141064  0.50010198    -0.86450
C556        C  0.77464246  0.02680654  0.58425520     0.95890
C557        C  0.77446119  0.89513951  0.58399994     0.95680
C558        C  0.86237108  0.83871141  0.70783786     0.00080
C559        C  0.83497250  0.85900305  0.71056444     0.00080
N560        N  0.92265081  0.76226179  0.54035559    -0.06600
N561        N  0.90459374  0.78645816  0.55345347    -0.58720
N562        N  0.99768207  0.73938816  0.56189896    -0.06280
N563        N  0.01465162  0.74719229  0.58895911    -0.60850
N564        N  0.99695105  0.76434030  0.54067298    -0.05880
N565        N  0.01281066  0.78988296  0.55405605    -0.58700
N566        N  0.92310502  0.73706200  0.56118500    -0.05560
N567        N  0.90509642  0.74329400  0.58774792    -0.61200
C568        C  0.89314655  0.77374444  0.58278290     0.95580
C569        C  0.02446731  0.77843903  0.58383191     0.95350
N570        N  0.00136248  0.63936377  0.53683276    -0.06790
N571        N  0.02967245  0.62334414  0.53704492    -0.59300
N572        N  0.92313255  0.65966294  0.56003954    -0.04910
N573        N  0.89546675  0.65666310  0.57758204    -0.60550
N574        N  0.92465756  0.63644986  0.53710153    -0.06820
N575        N  0.89830366  0.61729338  0.53848655    -0.59570
N576        N  0.00115388  0.66250063  0.55987916    -0.04550
N577        N  0.02951181  0.66270029  0.57631154    -0.60640
Mn578      Mn  0.96122557  0.69931651  0.56138531     1.18440
C579        C  0.04704980  0.63793922  0.56193821     0.97660
C580        C  0.88011612  0.62995490  0.56394222     0.98320
N581        N  0.99692080  0.76460399  0.45665597    -0.06840
N582        N  0.01460820  0.78909569  0.44357380    -0.63140
N583        N  0.92175739  0.73682546  0.43681959    -0.05640
N584        N  0.90245708  0.74232422  0.41092064    -0.63820
N585        N  0.92173293  0.76217788  0.45757838    -0.06340
N586        N  0.90296692  0.78593929  0.44492884    -0.63410
N587        N  0.99692493  0.73946518  0.43563472    -0.05240
N588        N  0.01485483  0.74583902  0.40903136    -0.64100
Mn589      Mn  0.95968055  0.76458673  0.49878882     1.10660
C590        C  0.02606112  0.77667229  0.41386663     0.98880
C591        C  0.89028325  0.77272758  0.41618755     0.98960
N592        N  0.92559530  0.63743885  0.46018034    -0.06350
N593        N  0.89988171  0.61784645  0.45737960    -0.61720
N594        N  0.99998412  0.66332148  0.43700374    -0.05670
N595        N  0.02610693  0.66140999  0.41736776    -0.58450
N596        N  0.00068720  0.64009446  0.45977524    -0.06980
N597        N  0.02727028  0.62179651  0.45623273    -0.61290
N598        N  0.92450845  0.66081162  0.43760039    -0.05970
N599        N  0.89799625  0.65780973  0.41878376    -0.58480
Mn600      Mn  0.96314803  0.63710660  0.49862157     1.20190
Mn601      Mn  0.96079331  0.69996550  0.43635919     1.10090
Cl602      Cl  0.96128091  0.70056266  0.49885644    -0.86450
C603        C  0.88301253  0.63092691  0.43147958     0.95890
C604        C  0.04288894  0.63536134  0.42968561     0.95680
C605        C  0.86340068  0.83987787  0.29035404     0.00080
C606        C  0.84097656  0.86583443  0.29410424     0.00080
C607        C  0.07489257  0.87538786  0.70783329     0.00080
C608        C  0.05603059  0.84704214  0.70797201     0.00080
C609        C  0.84124423  0.05940066  0.70912379     0.00080
C610        C  0.86373828  0.08450431  0.71325129     0.00080
C611        C  0.06890821  0.84118562  0.29002324     0.00080
C612        C  0.09422236  0.86382369  0.28799149     0.00080
C613        C  0.08744358  0.05474702  0.29664507     0.00080
C614        C  0.06118010  0.07612525  0.29244341     0.00080
C615        C  0.06026977  0.07762213  0.70680547     0.00080
C616        C  0.08600218  0.05334588  0.70576538     0.00080
C617        C  0.35384086  0.75102026  0.59315753     0.00080
C618        C  0.37140080  0.74645056  0.62283694     0.00080
C619        C  0.17468020  0.36086321  0.62320284     0.00080
C620        C  0.17426285  0.33520799  0.60021726     0.00080
C621        C  0.75015438  0.34151916  0.40724476     0.00080
C622        C  0.75099475  0.36292057  0.38018661     0.00080
C623        C  0.34070368  0.17512792  0.39799936     0.00080
C624        C  0.36063366  0.17738395  0.37037940     0.00080
C625        C  0.33138645  0.74847426  0.38952132     0.00080
C626        C  0.35982081  0.74761856  0.37015774     0.00080
C627        C  0.17754925  0.33265550  0.40228508     0.00080
C628        C  0.17439351  0.35953277  0.38165328     0.00080
C629        C  0.34263365  0.17718764  0.60209318     0.00080
C630        C  0.36100763  0.17348193  0.63104764     0.00080
C631        C  0.74685057  0.32259939  0.61067284     0.00080
C632        C  0.74929307  0.35055640  0.63109343     0.00080
C633        C  0.25685791  0.09824041  0.10716186     0.00080
C634        C  0.25788713  0.07533213  0.13305591     0.00080
C635        C  0.66788686  0.08372067  0.09782729     0.00080
C636        C  0.66632877  0.05773373  0.12104850     0.00080
C637        C  0.35244974  0.37854331  0.78075948     0.00080
C638        C  0.37370572  0.35229099  0.78129316     0.00080
C639        C  0.56756250  0.33477039  0.78830662     0.00080
C640        C  0.58181996  0.36588301  0.78769457     0.00080
C641        C  0.57031359  0.74879075  0.37224958     0.00080
C642        C  0.59617301  0.74586523  0.39504376     0.00080
C643        C  0.57024917  0.17348136  0.37177874     0.00080
C644        C  0.59600752  0.17733920  0.39473395     0.00080
C645        C  0.58618263  0.55139618  0.79217406     0.00080
C646        C  0.56455273  0.57752391  0.78708498     0.00080
C647        C  0.06690909  0.67131422  0.12586353     0.00080
C648        C  0.09175260  0.67154750  0.10184425     0.00080
C649        C  0.08284146  0.25426723  0.09756781     0.00080
C650        C  0.06184000  0.25735530  0.12472080     0.00080
C651        C  0.32940257  0.56866000  0.78973337     0.00080
C652        C  0.35787493  0.58775757  0.78675155     0.00080
C653        C  0.17734479  0.56605871  0.37024108     0.00080
C654        C  0.17309094  0.58875807  0.39602496     0.00080
C655        C  0.74915138  0.56263884  0.37352458     0.00080
C656        C  0.75389639  0.58108482  0.40207550     0.00080
C657        C  0.74922076  0.57600998  0.59730059     0.00080
C658        C  0.74729540  0.55754212  0.62654664     0.00080
C659        C  0.59468552  0.17521903  0.60433590     0.00080
C660        C  0.56572494  0.17527777  0.62291450     0.00080
C661        C  0.56255264  0.74759636  0.62434222     0.00080
C662        C  0.58339914  0.75000551  0.59651906     0.00080
C663        C  0.17735403  0.58915149  0.59435756     0.00080
C664        C  0.17365986  0.56492859  0.61771690     0.00080
C665        C  0.96430560  0.75696856  0.81973833     0.00080
C666        C  0.96575074  0.77858639  0.79277791     0.00080
C667        C  0.76061051  0.96234714  0.82057551     0.00080
C668        C  0.78877720  0.95931358  0.80064654     0.00080
C669        C  0.78413941  0.75804154  0.00009359     0.00080
C670        C  0.75830749  0.78005798  0.00428526     0.00080
C671        C  0.46600127  0.64157200  0.71321438     0.00080
C672        C  0.46361217  0.66887264  0.69251915     0.00080
C673        C  0.63327200  0.45445847  0.69335994     0.00080
C674        C  0.66082181  0.45693502  0.67291444     0.00080
C675        C  0.63401650  0.65385886  0.49935799     0.00080
C676        C  0.65988244  0.63184143  0.50094621     0.00080
C677        C  0.56719562  0.33814552  0.21224827     0.00080
C678        C  0.59434794  0.35741867  0.21676068     0.00080
C679        C  0.58391497  0.56718056  0.21887848     0.00080
C680        C  0.56506146  0.59579712  0.22208939     0.00080
C681        C  0.34012421  0.56307866  0.22026989     0.00080
C682        C  0.36577473  0.58573059  0.22286006     0.00080
C683        C  0.33018796  0.35804325  0.21562599     0.00080
C684        C  0.35822307  0.33827823  0.21364643     0.00080
C685        C  0.54003974  0.72134414  0.67500515    -0.20790
C686        C  0.54487064  0.71836331  0.64007289    -0.07350
C687        C  0.52389537  0.69531499  0.62328032     0.13510
C688        C  0.50246605  0.67512890  0.64265595    -0.20840
C689        C  0.49346452  0.68435895  0.67572878    -0.07360
C690        C  0.50971704  0.71242318  0.68895210     0.13500
C691        C  0.49233928  0.73891057  0.70934809    -0.24190
H692        H  0.55490904  0.73850386  0.68925887     0.14790
H693        H  0.48955875  0.65517993  0.63031980     0.14820
C694        C  0.51990330  0.69366643  0.58581116    -0.24140
H695        H  0.50633968  0.76250913  0.70879722     0.05030
H696        H  0.48885836  0.73335180  0.73604126     0.08260
H697        H  0.46817903  0.74441047  0.69790656     0.08260
H698        H  0.52794948  0.66913659  0.57641873     0.08240
H699        H  0.53366103  0.71316746  0.57260342     0.08240
H700        H  0.49343067  0.69715729  0.57933065     0.05020
C701        C  0.59697133  0.68928255  0.58175069    -0.20790
C702        C  0.59821289  0.72331221  0.57363860    -0.07350
C703        C  0.61521161  0.73159908  0.54292946     0.13510
C704        C  0.63187607  0.70751357  0.52534609    -0.20840
C705        C  0.62496284  0.67435681  0.52945083    -0.07360
C706        C  0.60745690  0.66462182  0.55855858     0.13500
C707        C  0.59850128  0.62914529  0.56465726    -0.24190
H708        H  0.58635395  0.68159406  0.60524589     0.14790
H709        H  0.64774990  0.71483686  0.50476150     0.14820
C710        C  0.61379177  0.76382783  0.52391008    -0.24140
H711        H  0.58208703  0.62662819  0.58683049     0.05030
H712        H  0.62088105  0.61428542  0.56955220     0.08260
H713        H  0.58525871  0.61897638  0.54255020     0.08260
H714        H  0.62811921  0.78368648  0.53605861     0.08240
H715        H  0.58775369  0.76994306  0.51923335     0.08240
H716        H  0.62480365  0.76226129  0.49843566     0.05020
C717        C  0.71086579  0.62134696  0.58154168    -0.20790
C718        C  0.71981504  0.58808358  0.57793135    -0.07350
C719        C  0.70469186  0.56957165  0.55179487     0.13510
C720        C  0.67951700  0.58394846  0.53269500    -0.20840
C721        C  0.67377969  0.61817314  0.53324079    -0.07360
C722        C  0.69116825  0.63733327  0.55754983     0.13500
C723        C  0.69586612  0.67408485  0.55483061    -0.24190
H724        H  0.72257229  0.63609625  0.60078718     0.14790
H725        H  0.66759075  0.56907338  0.51351173     0.14820
C726        C  0.71336320  0.53422644  0.54381858    -0.24140
H727        H  0.72158613  0.68104647  0.56166059     0.05030
H728        H  0.67885192  0.68700467  0.57229963     0.08260
H729        H  0.69266016  0.68267512  0.52872839     0.08260
H730        H  0.73128165  0.52374986  0.56178451     0.08240
H731        H  0.72343296  0.53254940  0.51796969     0.08240
H732        H  0.69077365  0.51872883  0.54490857     0.05020
C733        C  0.68960638  0.53147160  0.62304216    -0.20790
C734        C  0.71608481  0.54299994  0.64260215    -0.07350
C735        C  0.71590235  0.53296836  0.67678492     0.13510
C736        C  0.69654461  0.50585158  0.68676899    -0.20840
C737        C  0.67530997  0.48986103  0.66413051    -0.07360
C738        C  0.67016697  0.50453035  0.63248878     0.13500
C739        C  0.64467149  0.49260574  0.60756256    -0.24190
H740        H  0.68365802  0.54221575  0.59983335     0.14790
H741        H  0.69815451  0.49722490  0.71234327     0.14820
C742        C  0.73467691  0.55119355  0.70360951    -0.24140
H743        H  0.65698801  0.48551361  0.58373402     0.05030
H744        H  0.62701199  0.51282881  0.60202391     0.08260
H745        H  0.63039034  0.47109402  0.61668522     0.08260
H746        H  0.74388006  0.57527663  0.69454562     0.08240
H747        H  0.75550318  0.53584314  0.71276929     0.08240
H748        H  0.71788413  0.55675763  0.72493513     0.05020
C749        C  0.69418900  0.59840433  0.41659572    -0.20790
C750        C  0.72770611  0.59401863  0.42597604    -0.07350
C751        C  0.73686014  0.60477663  0.45873684     0.13510
C752        C  0.71508540  0.62389515  0.47706696    -0.20840
C753        C  0.68102490  0.62233445  0.47121893    -0.07360
C754        C  0.67022580  0.60814826  0.44053080     0.13500
C755        C  0.63453893  0.60097231  0.43286432    -0.24190
H756        H  0.68579626  0.59172754  0.39182783     0.14790
H757        H  0.72441693  0.63572457  0.49951936     0.14820
C758        C  0.76714018  0.59313266  0.47757008    -0.24140
H759        H  0.63184888  0.57455655  0.42589789     0.05030
H760        H  0.62624800  0.61635572  0.41149897     0.08260
H761        H  0.61816590  0.60527034  0.45467555     0.08260
H762        H  0.78893831  0.60872222  0.47206721     0.08240
H763        H  0.77186846  0.56673955  0.47208277     0.08240
H764        H  0.76332546  0.59476198  0.50512547     0.05020
C765        C  0.38445153  0.63414529  0.75897373    -0.20790
C766        C  0.37588352  0.60057760  0.75643382    -0.07350
C767        C  0.39564638  0.58092729  0.73455082     0.13510
C768        C  0.42176637  0.59622689  0.71663383    -0.20840
C769        C  0.43478552  0.62677245  0.72777728    -0.07360
C770        C  0.41731384  0.64282841  0.75365974     0.13500
C771        C  0.43433222  0.66002773  0.78247488    -0.24190
H772        H  0.37005376  0.65020584  0.77498665     0.14790
H773        H  0.43337505  0.58289054  0.69636089     0.14820
C774        C  0.39202358  0.54415233  0.73130171    -0.24140
H775        H  0.43037132  0.64546068  0.80565228     0.05030
H776        H  0.42392815  0.68481090  0.78743948     0.08260
H777        H  0.46119456  0.66117524  0.77916600     0.08260
H778        H  0.37225269  0.53431468  0.74740870     0.08240
H779        H  0.41549852  0.53206234  0.73881042     0.08240
H780        H  0.38653179  0.53741279  0.70488728     0.05020
C781        C  0.60390973  0.53723103  0.73224682    -0.20790
C782        C  0.60125811  0.52805765  0.76623592    -0.07350
C783        C  0.61388712  0.49602415  0.77501734     0.13510
C784        C  0.62894767  0.47641928  0.75058919    -0.20840
C785        C  0.62578311  0.48317970  0.71652963    -0.07360
C786        C  0.61187220  0.51387218  0.70722482     0.13500
C787        C  0.60148348  0.52149153  0.67205053    -0.24190
H788        H  0.59667932  0.56155166  0.72428409     0.14790
H789        H  0.63957109  0.45299381  0.75785989     0.14820
C790        C  0.60970692  0.47947108  0.80870689    -0.24140
H791        H  0.57571314  0.53088704  0.67186423     0.05030
H792        H  0.60131059  0.49900956  0.65642447     0.08260
H793        H  0.61785318  0.54070510  0.66130057     0.08260
H794        H  0.58328444  0.47911005  0.81568205     0.08240
H795        H  0.62543751  0.49101446  0.82815160     0.08240
H796        H  0.61735003  0.45322835  0.80819107     0.05020
C797        C  0.55229384  0.62407331  0.75086216    -0.20790
C798        C  0.55071751  0.58978401  0.75439804    -0.07350
C799        C  0.52665173  0.57258948  0.73522041     0.13510
C800        C  0.50249482  0.59094959  0.71774375    -0.20840
C801        C  0.49871288  0.62531811  0.72259750    -0.07360
C802        C  0.52450776  0.64166392  0.74030897     0.13500
C803        C  0.52172371  0.67563378  0.75455351    -0.24190
H804        H  0.57144465  0.63737863  0.76438051     0.14790
H805        H  0.48507807  0.57767238  0.70248006     0.14820
C806        C  0.52311112  0.53549282  0.73625153    -0.24140
H807        H  0.52453063  0.67480826  0.78226370     0.05030
H808        H  0.49722049  0.68555816  0.74968652     0.08260
H809        H  0.54134371  0.69179374  0.74420461     0.08260
H810        H  0.52391072  0.52621886  0.76229880     0.08240
H811        H  0.54280586  0.52345405  0.72154538     0.08240
H812        H  0.49925463  0.52735474  0.72519501     0.05020
C813        C  0.58050245  0.70094319  0.43589599    -0.20790
C814        C  0.60467140  0.71598610  0.41575282    -0.07350
C815        C  0.63800437  0.70572992  0.41964323     0.13510
C816        C  0.64658189  0.68390140  0.44537616    -0.20840
C817        C  0.62281431  0.66958838  0.46652374    -0.07360
C818        C  0.58902581  0.67736050  0.46047906     0.13500
C819        C  0.56178355  0.66161265  0.48058365    -0.24190
H820        H  0.55497239  0.70857421  0.43326024     0.14790
H821        H  0.67254508  0.68034538  0.45055177     0.14820
C822        C  0.66532155  0.71809260  0.39732838    -0.24140
H823        H  0.53700759  0.66824912  0.47069046     0.05030
H824        H  0.56271946  0.66997298  0.50700873     0.08260
H825        H  0.56420639  0.63435858  0.47943288     0.08260
H826        H  0.67014364  0.74448246  0.40233272     0.08240
H827        H  0.65869184  0.71391768  0.37067660     0.08240
H828        H  0.68893079  0.70485404  0.40189013     0.05020
C829        C  0.61554107  0.37338095  0.73557143    -0.20790
C830        C  0.58860137  0.38361307  0.75524421    -0.07350
C831        C  0.56991057  0.41084949  0.74386701     0.13510
C832        C  0.58145385  0.42948961  0.71648316    -0.20840
C833        C  0.61261295  0.42334796  0.70162540    -0.07360
C834        C  0.62505829  0.39094984  0.70664843     0.13500
C835        C  0.63681803  0.36992766  0.67793783    -0.24190
H836        H  0.62739964  0.35006376  0.74121430     0.14790
H837        H  0.56855372  0.45206628  0.71017656     0.14820
C838        C  0.53889636  0.42175416  0.76130716    -0.24140
H839        H  0.61862046  0.34985311  0.67347220     0.05030
H840        H  0.66054084  0.35786194  0.68419107     0.08260
H841        H  0.63821942  0.38380549  0.65416281     0.08260
H842        H  0.54513841  0.43079818  0.78676165     0.08240
H843        H  0.52109391  0.40095233  0.76240709     0.08240
H844        H  0.52664036  0.44238825  0.74792748     0.05020
C845        C  0.71901345  0.38306701  0.67426091    -0.20790
C846        C  0.72321038  0.37553559  0.64002004    -0.07350
C847        C  0.70999855  0.39831008  0.61659267     0.13510
C848        C  0.68785477  0.42270775  0.62775511    -0.20840
C849        C  0.68194512  0.42849420  0.66210864    -0.07360
C850        C  0.70084916  0.41041815  0.68541533     0.13500
C851        C  0.70310897  0.42010474  0.72189997    -0.24190
H852        H  0.73086661  0.36831046  0.69290369     0.14790
H853        H  0.67616148  0.43776312  0.60914221     0.14820
C854        C  0.71869282  0.39807749  0.57980182    -0.24140
H855        H  0.71944840  0.40323243  0.73620101     0.05030
H856        H  0.67856393  0.41944284  0.73391230     0.08260
H857        H  0.71375457  0.44515292  0.72417979     0.08260
H858        H  0.69590729  0.39542714  0.56452936     0.08240
H859        H  0.73562087  0.37782855  0.57284608     0.08240
H860        H  0.73081317  0.42176006  0.57319096     0.05020
C861        C  0.38276898  0.71631389  0.67575976    -0.20790
C862        C  0.38220580  0.71438049  0.64033982    -0.07350
C863        C  0.40117461  0.68797834  0.62616803     0.13510
C864        C  0.42243581  0.66930437  0.64657503    -0.20840
C865        C  0.43049153  0.67967799  0.67889132    -0.07360
C866        C  0.40914399  0.70295875  0.69424125     0.13500
C867        C  0.41483483  0.71723125  0.72839872    -0.24190
H868        H  0.36682493  0.73392833  0.68834646     0.14790
H869        H  0.43610493  0.64892859  0.63583230     0.14820
C870        C  0.40308605  0.68046565  0.58985674    -0.24140
H871        H  0.41653653  0.74453075  0.72680221     0.05030
H872        H  0.43817274  0.70829417  0.73922882     0.08260
H873        H  0.39370619  0.71095555  0.74494572     0.08260
H874        H  0.41437159  0.70204976  0.57797945     0.08240
H875        H  0.37842519  0.67309533  0.58074210     0.08240
H876        H  0.41971345  0.65941514  0.58394390     0.05020
C877        C  0.82552727  0.04284856  0.76944475    -0.20790
C878        C  0.83218742  0.03440863  0.73568288    -0.07350
C879        C  0.82626695  0.00151319  0.72581478     0.13510
C880        C  0.80740248  0.98105450  0.74594008    -0.20840
C881        C  0.80246192  0.98779850  0.78017945    -0.07360
C882        C  0.81365187  0.01891228  0.79246221     0.13500
C883        C  0.81568088  0.02695675  0.82919955    -0.24190
H884        H  0.83045268  0.06761228  0.77830977     0.14790
H885        H  0.79959003  0.95770644  0.73526367     0.14820
C886        C  0.84224357  0.98573129  0.69581389    -0.24140
H887        H  0.84118228  0.03510368  0.83537771     0.05030
H888        H  0.81044804  0.00524093  0.84509839     0.08260
H889        H  0.79821306  0.04720443  0.83539270     0.08260
H890        H  0.86308154  0.00047651  0.68611001     0.08240
H891        H  0.82334522  0.98121114  0.67619441     0.08240
H892        H  0.85361820  0.96205567  0.70351410     0.05020
C893        C  0.04574190  0.79796866  0.74418071    -0.20790
C894        C  0.04053592  0.83193776  0.73880118    -0.07350
C895        C  0.01537220  0.84762812  0.75769651     0.13510
C896        C  0.99655229  0.82926300  0.78047653    -0.20840
C897        C  0.99758030  0.79461927  0.78109667    -0.07360
C898        C  0.02365297  0.77871511  0.76329952     0.13500
C899        C  0.02694917  0.74183321  0.75977514    -0.24190
H900        H  0.06472416  0.78544698  0.72984112     0.14790
H901        H  0.97716869  0.84168654  0.79446446     0.14820
C902        C  0.00463047  0.88241983  0.75136148    -0.24140
H903        H  0.03016805  0.73516108  0.73292139     0.05030
H904        H  0.00478717  0.72838632  0.76820387     0.08260
H905        H  0.04894371  0.73322246  0.77388406     0.08260
H906        H  0.00290746  0.88700533  0.72403912     0.08240
H907        H  0.02187760  0.89939674  0.76407307     0.08240
H908        H  0.97975512  0.88755785  0.76198330     0.05020
C909        C  0.12939923  0.63161063  0.39297752    -0.20790
C910        C  0.13857893  0.59978141  0.40282989    -0.07350
C911        C  0.11587687  0.57965895  0.42029655     0.13510
C912        C  0.08440977  0.59172907  0.42691826    -0.20840
C913        C  0.07517845  0.62371086  0.41765044    -0.07360
C914        C  0.09778006  0.64389793  0.39993598     0.13500
C915        C  0.08947458  0.67851998  0.38913908    -0.24190
H916        H  0.14724757  0.64684762  0.37993325     0.14790
H917        H  0.06720600  0.57612332  0.44041720     0.14820
C918        C  0.12409933  0.54583322  0.43330901    -0.24140
H919        H  0.11059236  0.69058667  0.37626514     0.05030
H920        H  0.08306673  0.69382272  0.41135478     0.08260
H921        H  0.06845377  0.67802994  0.37126215     0.08260
H922        H  0.15024131  0.53887643  0.42918993     0.08240
H923        H  0.10752901  0.52758006  0.42121363     0.08240
H924        H  0.11926680  0.54446555  0.46050110     0.05020
C925        C  0.83679716  0.58627807  0.56000769    -0.20790
C926        C  0.84650629  0.61702291  0.57313413    -0.07350
C927        C  0.82349289  0.63455824  0.59317540     0.13510
C928        C  0.79186952  0.62122350  0.59906492    -0.20840
C929        C  0.78225876  0.59027390  0.58629280    -0.07360
C930        C  0.80535737  0.57270396  0.56630244     0.13500
C931        C  0.79736968  0.53978922  0.55098076    -0.24190
H932        H  0.85401650  0.57255686  0.54451132     0.14790
H933        H  0.77513274  0.63445059  0.61540773     0.14820
C934        C  0.83177326  0.66732084  0.60863838    -0.24140
H935        H  0.81909699  0.52864343  0.53822875     0.05030
H936        H  0.77801550  0.54291486  0.53179862     0.08260
H937        H  0.78912974  0.52238194  0.57046284     0.08260
H938        H  0.83806235  0.68512047  0.58855214     0.08240
H939        H  0.85286267  0.66444282  0.62618315     0.08240
H940        H  0.81072464  0.67768853  0.62313289     0.05020
C941        C  0.09905118  0.60974753  0.54606488    -0.20790
C942        C  0.08205724  0.62961701  0.56932615    -0.07350
C943        C  0.09873210  0.64008235  0.59866249     0.13510
C944        C  0.13108297  0.62905008  0.60444138    -0.20840
C945        C  0.14697871  0.60688691  0.58256497    -0.07360
C946        C  0.13101585  0.59799468  0.55244131     0.13500
C947        C  0.14665455  0.57503258  0.52737529    -0.24190
H948        H  0.08682359  0.60229404  0.52307833     0.14790
H949        H  0.14326690  0.63660762  0.62717299     0.14820
C950        C  0.08249201  0.66160325  0.62481366    -0.24140
H951        H  0.13143949  0.57333316  0.50450625     0.05030
H952        H  0.14887722  0.55002394  0.53787268     0.08260
H953        H  0.17126720  0.58398815  0.51963099     0.08260
H954        H  0.05985606  0.64935510  0.63442378     0.08240
H955        H  0.07615321  0.68592355  0.61387067     0.08240
H956        H  0.09900875  0.66623817  0.64657465     0.05020
C957        C  0.79338249  0.62699664  0.40691236    -0.20790
C958        C  0.78797097  0.59292241  0.40870343    -0.07350
C959        C  0.81431375  0.57148918  0.41741847     0.13510
C960        C  0.84541301  0.58486729  0.42316293    -0.20840
C961        C  0.85076547  0.61882689  0.42109808    -0.07360
C962        C  0.82459337  0.64030790  0.41281944     0.13500
C963        C  0.82883332  0.67717247  0.41137878    -0.24190
H964        H  0.77293581  0.64316248  0.40071571     0.14790
H965        H  0.86556831  0.56862195  0.43013554     0.14820
C966        C  0.81054705  0.53490787  0.42271234    -0.24140
H967        H  0.80509439  0.68986819  0.40601761     0.05030
H968        H  0.84640878  0.68362818  0.39106768     0.08260
H969        H  0.83816833  0.68657618  0.43579075     0.08260
H970        H  0.82745240  0.52133625  0.40561367     0.08240
H971        H  0.78520935  0.52614739  0.41816368     0.08240
H972        H  0.81714581  0.52869032  0.44896589     0.05020
C973        C  0.05301387  0.77590396  0.35802079    -0.20790
C974        C  0.04175586  0.79494964  0.38541908    -0.07350
C975        C  0.04170173  0.82962052  0.38217769     0.13510
C976        C  0.05142536  0.84382820  0.35151918    -0.20840
C977        C  0.06131067  0.82466999  0.32350029    -0.07360
C978        C  0.06221459  0.79001997  0.32732353     0.13500
C979        C  0.07252654  0.76677598  0.29966759    -0.24190
H980        H  0.05366283  0.74924236  0.36002631     0.14790
H981        H  0.04918223  0.87019472  0.34888801     0.14820
C982        C  0.03014055  0.85189893  0.41010114    -0.24140
H983        H  0.09339747  0.75125387  0.30844228     0.05030
H984        H  0.08084512  0.77955779  0.27671510     0.08260
H985        H  0.05144083  0.75044528  0.29317157     0.08260
H986        H  0.04548173  0.84779584  0.43277799     0.08240
H987        H  0.00376917  0.84686322  0.41583437     0.08240
H988        H  0.03228111  0.87836296  0.40328834     0.05020
C989        C  0.06515858  0.79515642  0.62742370    -0.20790
C990        C  0.03392542  0.79938245  0.61281519    -0.07350
C991        C  0.00957998  0.81724923  0.63064135     0.13510
C992        C  0.01751325  0.83201232  0.66157142    -0.20840
C993        C  0.04918662  0.82913932  0.67555179    -0.07360
C994        C  0.07298774  0.80935783  0.65872591     0.13500
C995        C  0.10609294  0.80112411  0.67377068    -0.24190
H996        H  0.08314535  0.77950819  0.61497676     0.14790
H997        H  0.99883923  0.84597820  0.67498299     0.14820
C998        C  0.97465874  0.81934461  0.61786542    -0.24140
H999        H  0.10811878  0.77398899  0.67684189     0.05030
H1000       H  0.10984816  0.81256994  0.69874583     0.08260
H1001       H  0.12612127  0.80948143  0.65677606     0.08260
H1002       H  0.96422461  0.79420043  0.61459972     0.08240
H1003       H  0.97413964  0.83250060  0.59351820     0.08240
H1004       H  0.95860556  0.83265884  0.63579656     0.05020
C1005       C  0.90578610  0.80966855  0.37081067    -0.20790
C1006       C  0.88052681  0.79234623  0.38668638    -0.07350
C1007       C  0.85048902  0.78728418  0.36940699     0.13510
C1008       C  0.84632913  0.80053570  0.33697567    -0.20840
C1009       C  0.87116677  0.81988217  0.32179287    -0.07360
C1010       C  0.90158231  0.82305104  0.33882430     0.13500
C1011       C  0.93080214  0.83961500  0.32406999    -0.24190
H1012       H  0.92968401  0.81177921  0.38303336     0.14790
H1013       H  0.82315907  0.79689325  0.32387834     0.14820
C1014       C  0.82276703  0.76840479  0.38543977    -0.24140
H1015       H  0.94047869  0.85847812  0.34179513     0.05030
H1016       H  0.92556831  0.85207343  0.30022631     0.08260
H1017       H  0.94950366  0.82007503  0.31986967     0.08260
H1018       H  0.81538013  0.78075513  0.40918417     0.08240
H1019       H  0.83109511  0.74301524  0.39095400     0.08240
H1020       H  0.80074958  0.76695649  0.36886420     0.05020
C1021       C  0.91828991  0.81742694  0.72145968    -0.20790
C1022       C  0.88746654  0.82756402  0.73451238    -0.07350
C1023       C  0.88198331  0.82041420  0.76928140     0.13510
C1024       C  0.90814461  0.80668044  0.78880525    -0.20840
C1025       C  0.93601073  0.79196567  0.77342196    -0.07360
C1026       C  0.93849496  0.79527201  0.73823765     0.13500
C1027       C  0.96060193  0.77410528  0.71674338    -0.24190
H1028       H  0.92509876  0.82270089  0.69583041     0.14790
H1029       H  0.90552802  0.80525074  0.81577804     0.14820
C1030       C  0.84875353  0.82311548  0.78586887    -0.24140
H1031       H  0.94641022  0.76445339  0.69495407     0.05030
H1032       H  0.96911189  0.75212385  0.73045207     0.08260
H1033       H  0.98171355  0.78876463  0.70717109     0.08260
H1034       H  0.82877642  0.81611587  0.76819800     0.08240
H1035       H  0.84512187  0.84805928  0.79648715     0.08240
H1036       H  0.84701615  0.80606683  0.80745101     0.05020
C1037       C  0.84770472  0.89907477  0.75785949    -0.20790
C1038       C  0.82501408  0.87834752  0.74123577    -0.07350
C1039       C  0.79168133  0.87904291  0.75209484     0.13510
C1040       C  0.78129047  0.90317318  0.77474583    -0.20840
C1041       C  0.80277214  0.92594930  0.78956997    -0.07360
C1042       C  0.83720823  0.92154746  0.78307623     0.13500
C1043       C  0.86289368  0.94123637  0.80182582    -0.24190
H1044       H  0.87352736  0.89815037  0.75071209     0.14790
H1045       H  0.75544360  0.90602876  0.77730157     0.14820
C1046       C  0.76581589  0.85536788  0.73947072    -0.24140
H1047       H  0.88829195  0.93288129  0.79548494     0.05030
H1048       H  0.85928035  0.93797049  0.82920488     0.08260
H1049       H  0.86144890  0.96777500  0.79569191     0.08260
H1050       H  0.77431783  0.82968151  0.74310537     0.08240
H1051       H  0.75985899  0.86071369  0.71303955     0.08240
H1052       H  0.74219609  0.85770354  0.75351674     0.05020
C1053       C  0.85877394  0.79162144  0.66860908    -0.20790
C1054       C  0.86851109  0.82419384  0.67365594    -0.07350
C1055       C  0.88434212  0.84155372  0.64726784     0.13510
C1056       C  0.88922566  0.82566315  0.61624579    -0.20840
C1057       C  0.87946335  0.79273876  0.61137156    -0.07360
C1058       C  0.86267592  0.77617611  0.63759556     0.13500
C1059       C  0.84835399  0.74218050  0.63328412    -0.24190
H1060       H  0.84757727  0.77825406  0.68918939     0.14790
H1061       H  0.90276006  0.83832069  0.59667502     0.14820
C1062       C  0.89836235  0.87577205  0.65186802    -0.24140
H1063       H  0.83213496  0.73529740  0.65463200     0.05030
H1064       H  0.86832202  0.72354898  0.63213883     0.08260
H1065       H  0.83309628  0.74139457  0.61016795     0.08260
H1066       H  0.89417840  0.88570009  0.67744637     0.08240
H1067       H  0.88708446  0.89277014  0.63338290     0.08240
H1068       H  0.92540187  0.87561265  0.64760142     0.05020
C1069       C  0.64015347  0.82975287  0.39730724    -0.20790
C1070       C  0.62654671  0.84329383  0.42672706    -0.07350
C1071       C  0.60644454  0.82296126  0.44707285     0.13510
C1072       C  0.60070272  0.79004633  0.43768890    -0.20840
C1073       C  0.61224666  0.77728197  0.40719842    -0.07360
C1074       C  0.63257367  0.79750988  0.38679083     0.13500
C1075       C  0.64608107  0.78636519  0.35347355    -0.24190
H1076       H  0.65576351  0.84487452  0.38148236     0.14790
H1077       H  0.58438571  0.77493193  0.45277754     0.14820
C1078       C  0.58987231  0.83571850  0.47817368    -0.24140
H1079       H  0.67350820  0.78607089  0.35447602     0.05030
H1080       H  0.63836993  0.80394944  0.33372256     0.08260
H1081       H  0.63736072  0.76145883  0.34627618     0.08260
H1082       H  0.57307278  0.85644094  0.47194546     0.08240
H1083       H  0.60873333  0.84343799  0.49679822     0.08240
H1084       H  0.57440905  0.81655562  0.48956187     0.05020
C1085       C  0.61385889  0.09701806  0.55551498    -0.20790
C1086       C  0.62709731  0.07678236  0.58020464    -0.07350
C1087       C  0.63274533  0.08987554  0.61259262     0.13510
C1088       C  0.62378012  0.12273703  0.61916556    -0.20840
C1089       C  0.60712629  0.14164195  0.59498705    -0.07360
C1090       C  0.60234688  0.12849009  0.56242929     0.13500
C1091       C  0.58627941  0.14676344  0.53382136    -0.24190
H1092       H  0.61318848  0.08834232  0.53023609     0.14790
H1093       H  0.62858857  0.13339667  0.64362844     0.14820
C1094       C  0.64731792  0.06947364  0.64037184    -0.24140
H1095       H  0.56449131  0.13280944  0.52475437     0.05030
H1096       H  0.60410067  0.14910233  0.51280004     0.08260
H1097       H  0.57787582  0.17170728  0.54057296     0.08260
H1098       H  0.67298453  0.06217999  0.63391207     0.08240
H1099       H  0.63196637  0.04712068  0.64438396     0.08240
H1100       H  0.64822664  0.08339201  0.66440313     0.05020
C1101       C  0.64231540  0.09501066  0.39990723    -0.20790
C1102       C  0.62548591  0.08024671  0.42677000    -0.07350
C1103       C  0.60132855  0.09897588  0.44412908     0.13510
C1104       C  0.59760783  0.13260962  0.43674281    -0.20840
C1105       C  0.61209045  0.14645223  0.40802251    -0.07360
C1106       C  0.63442970  0.12691160  0.38899562     0.13500
C1107       C  0.64914017  0.13785691  0.35620940    -0.24190
H1108       H  0.66021801  0.08078994  0.38570449     0.14790
H1109       H  0.57929527  0.14687398  0.45035739     0.14820
C1110       C  0.57634616  0.08311977  0.46703345    -0.24140
H1111       H  0.64311720  0.11949490  0.33644210     0.05030
H1112       H  0.67645796  0.13924932  0.35847591     0.08260
H1113       H  0.63967267  0.16210384  0.34802948     0.08260
H1114       H  0.58798959  0.07211124  0.48901078     0.08240
H1115       H  0.56393381  0.06268367  0.45374089     0.08240
H1116       H  0.55711180  0.10074949  0.47559581     0.05020
C1117       C  0.58666002  0.83888984  0.56659219    -0.20790
C1118       C  0.61847640  0.84815904  0.57710721    -0.07350
C1119       C  0.63865214  0.82505376  0.59419467     0.13510
C1120       C  0.62622747  0.79344048  0.60032998    -0.20840
C1121       C  0.59478512  0.78412976  0.58906776    -0.07360
C1122       C  0.57476377  0.80703613  0.57156203     0.13500
C1123       C  0.54185321  0.79799559  0.55593585    -0.24190
H1124       H  0.57123088  0.85627981  0.55319191     0.14790
H1125       H  0.64138073  0.77541895  0.61317718     0.14820
C1126       C  0.67363801  0.83260015  0.60483834    -0.24140
H1127       H  0.54221949  0.80111828  0.52855573     0.05030
H1128       H  0.52239076  0.81478585  0.56501586     0.08260
H1129       H  0.53460535  0.77212170  0.56077684     0.08260
H1130       H  0.67375123  0.85298828  0.62347925     0.08240
H1131       H  0.68870352  0.83942845  0.58263803     0.08240
H1132       H  0.68570310  0.81100400  0.61675942     0.05020
C1133       C  0.82509209  0.88654776  0.38690611    -0.20790
C1134       C  0.79158907  0.87804650  0.38957732    -0.07350
C1135       C  0.77592055  0.86179332  0.36229029     0.13510
C1136       C  0.79299892  0.85793669  0.33198740    -0.20840
C1137       C  0.82550533  0.86922198  0.32824909    -0.07360
C1138       C  0.84227010  0.88263626  0.35658393     0.13500
C1139       C  0.87701719  0.89594268  0.35501033    -0.24190
H1140       H  0.83724252  0.89897688  0.40762887     0.14790
H1141       H  0.78074356  0.84659448  0.31069207     0.14820
C1142       C  0.74111059  0.84853206  0.36462516    -0.24140
H1143       H  0.87723333  0.92235330  0.36231825     0.05030
H1144       H  0.88782888  0.89409386  0.32957006     0.08260
H1145       H  0.89285088  0.88246532  0.37305224     0.08260
H1146       H  0.72287721  0.86890127  0.36557372     0.08240
H1147       H  0.73862870  0.83286555  0.38726012     0.08240
H1148       H  0.73470139  0.83310395  0.34248020     0.05020
C1149       C  0.84321779  0.04684412  0.64675865    -0.20790
C1150       C  0.82438759  0.05519260  0.67542171    -0.07350
C1151       C  0.78976099  0.05806896  0.67191433     0.13510
C1152       C  0.77515683  0.05163324  0.64077753    -0.20840
C1153       C  0.79368006  0.04114756  0.61277908    -0.07360
C1154       C  0.82845425  0.03973653  0.61563410     0.13500
C1155       C  0.85020375  0.02947119  0.58678070    -0.24190
H1156       H  0.86964473  0.04382744  0.64921140     0.14790
H1157       H  0.74847127  0.05345430  0.63892084     0.14820
C1158       C  0.76703294  0.06736980  0.70037707    -0.24140
H1159       H  0.87683799  0.03067100  0.59346515     0.05030
H1160       H  0.84613473  0.04621384  0.56521065     0.08260
H1161       H  0.84462101  0.00365694  0.57936316     0.08260
H1162       H  0.75236621  0.08941665  0.69328050     0.08240
H1163       H  0.78021449  0.07344792  0.72389476     0.08240
H1164       H  0.74979953  0.04663454  0.70527777     0.05020
C1165       C  0.82505975  0.89804079  0.66335259    -0.20790
C1166       C  0.81687330  0.86788380  0.67848312    -0.07350
C1167       C  0.79634876  0.84550155  0.66028120     0.13510
C1168       C  0.78447666  0.85433391  0.62846564    -0.20840
C1169       C  0.79380783  0.88391533  0.61316553    -0.07360
C1170       C  0.81469815  0.90589040  0.63066472     0.13500
C1171       C  0.82577948  0.93780074  0.61496852    -0.24190
H1172       H  0.84124280  0.91476902  0.67657854     0.14790
H1173       H  0.76735858  0.83805584  0.61556349     0.14820
C1174       C  0.78560130  0.81245782  0.67356576    -0.24140
H1175       H  0.84352972  0.95128974  0.63115630     0.05030
H1176       H  0.80412423  0.95395946  0.61023418     0.08260
H1177       H  0.83859959  0.93256620  0.59092308     0.08260
H1178       H  0.79721065  0.80650552  0.69788280     0.08240
H1179       H  0.79225985  0.79277431  0.65536773     0.08240
H1180       H  0.75833178  0.81212718  0.67670187     0.05020
C1181       C  0.82721304  0.02319153  0.33789034    -0.20790
C1182       C  0.81835792  0.05251271  0.32176232    -0.07350
C1183       C  0.79408987  0.07306769  0.33674727     0.13510
C1184       C  0.78168990  0.06503317  0.36855319    -0.20840
C1185       C  0.79299223  0.03725642  0.38600235    -0.07360
C1186       C  0.81559088  0.01569815  0.37015873     0.13500
C1187       C  0.82668240  0.98424471  0.38671312    -0.24190
H1188       H  0.84421924  0.00653692  0.32546620     0.14790
H1189       H  0.76253083  0.08030436  0.37961948     0.14820
C1190       C  0.78009535  0.10307451  0.31967360    -0.24140
H1191       H  0.84450741  0.97051275  0.37083994     0.05030
H1192       H  0.80508170  0.96798947  0.39143117     0.08260
H1193       H  0.83917547  0.99003734  0.41079466     0.08260
H1194       H  0.79242519  0.10848203  0.29548823     0.08240
H1195       H  0.78274688  0.12497799  0.33624098     0.08240
H1196       H  0.75336197  0.09915460  0.31477959     0.05020
C1197       C  0.82154644  0.28020297  0.42037499    -0.20790
C1198       C  0.84688811  0.30195081  0.43015866    -0.07350
C1199       C  0.83960145  0.33570769  0.43482910     0.13510
C1200       C  0.80751226  0.34659956  0.42973488    -0.20840
C1201       C  0.78228906  0.32578499  0.41802140    -0.07360
C1202       C  0.78918417  0.29166963  0.41442415     0.13500
C1203       C  0.76343418  0.26686227  0.40386338    -0.24190
H1204       H  0.82691405  0.25413135  0.41759228     0.14790
H1205       H  0.80231892  0.37229868  0.43413042     0.14820
C1206       C  0.86547909  0.36119534  0.44383565    -0.24140
H1207       H  0.75970214  0.24870355  0.42428613     0.05030
H1208       H  0.77193472  0.25348893  0.38109136     0.08260
H1209       H  0.73928905  0.27828715  0.39803288     0.08260
H1210       H  0.88595489  0.36043066  0.42529699     0.08240
H1211       H  0.87515432  0.35712565  0.46944257     0.08240
H1212       H  0.85517680  0.38653412  0.44395987     0.05020
C1213       C  0.12041770  0.34299958  0.57277773    -0.20790
C1214       C  0.14073943  0.32241292  0.59187799    -0.07350
C1215       C  0.12938610  0.29132927  0.60243167     0.13510
C1216       C  0.09712577  0.28201385  0.59437254    -0.20840
C1217       C  0.07636602  0.30308228  0.57601300    -0.07360
C1218       C  0.08809339  0.33429438  0.56541622     0.13500
C1219       C  0.06704905  0.35922232  0.54716798    -0.24190
H1220       H  0.13010419  0.36642053  0.56413667     0.14790
H1221       H  0.08834231  0.25798383  0.60222371     0.14820
C1222       C  0.15048041  0.26781339  0.62226239    -0.24140
H1223       H  0.08005557  0.38315684  0.54399878     0.05030
H1224       H  0.04414528  0.36420068  0.56167986     0.08260
H1225       H  0.06090797  0.35014632  0.52165138     0.08260
H1226       H  0.17542381  0.27777097  0.62775426     0.08240
H1227       H  0.15351456  0.24445827  0.60795541     0.08240
H1228       H  0.13822381  0.26236284  0.64653398     0.05020
C1229       C  0.83183900  0.28041087  0.60502625    -0.20790
C1230       C  0.84532897  0.29581527  0.57667774    -0.07350
C1231       C  0.82528643  0.31829116  0.55853688     0.13510
C1232       C  0.79253943  0.32396328  0.56888119    -0.20840
C1233       C  0.77959524  0.30960881  0.59806279    -0.07360
C1234       C  0.79971461  0.28728267  0.61625327     0.13500
C1235       C  0.78780811  0.26865787  0.64643159    -0.24190
H1236       H  0.84660340  0.26290072  0.61901265     0.14790
H1237       H  0.77734009  0.34112680  0.55499585     0.14820
C1238       C  0.83802259  0.33702878  0.52869152    -0.24140
H1239       H  0.78772812  0.24183351  0.64070072     0.05030
H1240       H  0.76254502  0.27593016  0.65414457     0.08260
H1241       H  0.80518667  0.27246441  0.66750388     0.08260
H1242       H  0.84437787  0.31949279  0.50827272     0.08240
H1243       H  0.85996892  0.35184671  0.53597506     0.08240
H1244       H  0.81951587  0.35466539  0.51886059     0.05020
C1245       C  0.10050726  0.30960747  0.45201687    -0.20790
C1246       C  0.08167401  0.29290062  0.42768017    -0.07350
C1247       C  0.09625858  0.28597334  0.39610853     0.13510
C1248       C  0.12861027  0.29688780  0.38951686    -0.20840
C1249       C  0.14681055  0.31495323  0.41334534    -0.07360
C1250       C  0.13251364  0.32118610  0.44521768     0.13500
C1251       C  0.14913990  0.34293411  0.47107746    -0.24190
H1252       H  0.08960695  0.31486517  0.47627188     0.14790
H1253       H  0.13895360  0.29327785  0.36472220     0.14820
C1254       C  0.07747949  0.26883782  0.36846382    -0.24140
H1255       H  0.13395724  0.34558139  0.49413725     0.05030
H1256       H  0.15330733  0.36791646  0.46101388     0.08260
H1257       H  0.17331430  0.33287418  0.47850916     0.08260
H1258       H  0.05468191  0.28289702  0.36253209     0.08240
H1259       H  0.07095193  0.24344636  0.37625786     0.08240
H1260       H  0.09231054  0.26685767  0.34509635     0.05020
C1261       C  0.89023885  0.09691311  0.38862875    -0.20790
C1262       C  0.87642893  0.12792157  0.39561207    -0.07350
C1263       C  0.85586093  0.14311975  0.37149798     0.13510
C1264       C  0.85218245  0.12844911  0.33996078    -0.20840
C1265       C  0.86690697  0.09814089  0.33237141    -0.07360
C1266       C  0.88612327  0.08187032  0.35712442     0.13500
C1267       C  0.90570171  0.05101023  0.34936747    -0.24190
H1268       H  0.90678834  0.08582693  0.40674140     0.14790
H1269       H  0.83844370  0.14117362  0.32061813     0.14820
C1270       C  0.83810009  0.17515683  0.37858519    -0.24140
H1271       H  0.92211873  0.04413681  0.37052483     0.05030
H1272       H  0.92132008  0.05447039  0.32685170     0.08260
H1273       H  0.88949543  0.02979436  0.34476520     0.08260
H1274       H  0.85582014  0.19584162  0.38122887     0.08240
H1275       H  0.82335154  0.17280119  0.40193373     0.08240
H1276       H  0.82086984  0.18170375  0.35797159     0.05020
C1277       C  0.06591409  0.13989202  0.63402592    -0.20790
C1278       C  0.04547831  0.12502398  0.60975394    -0.07350
C1279       C  0.03115936  0.09403923  0.61697129     0.13510
C1280       C  0.03328983  0.08157979  0.64974091    -0.20840
C1281       C  0.05497375  0.09531013  0.67342855    -0.07360
C1282       C  0.07158018  0.12507029  0.66537369     0.13500
C1283       C  0.09254101  0.14291531  0.69094398    -0.24190
H1284       H  0.07642793  0.16395553  0.62890980     0.14790
H1285       H  0.01888792  0.06023524  0.65667417     0.14820
C1286       C  0.01461794  0.07344240  0.59024395    -0.24140
H1287       H  0.10385598  0.16555676  0.68033634     0.05030
H1288       H  0.11270962  0.12694793  0.70007127     0.08260
H1289       H  0.07721008  0.15037776  0.71273579     0.08260
H1290       H  0.03298341  0.06717399  0.57053842     0.08240
H1291       H  0.99383614  0.08671536  0.57849304     0.08240
H1292       H  0.00466611  0.05003742  0.60046855     0.05020
C1293       C  0.85979960  0.13790182  0.63451524    -0.20790
C1294       C  0.88870230  0.12768901  0.61812181    -0.07350
C1295       C  0.91089221  0.10675015  0.63517165     0.13510
C1296       C  0.90331998  0.09566652  0.66752933    -0.20840
C1297       C  0.87359598  0.10435884  0.68320476    -0.07360
C1298       C  0.85196830  0.12670553  0.66688946     0.13500
C1299       C  0.82165214  0.14040255  0.68385003    -0.24190
H1300       H  0.84395430  0.15585996  0.62243980     0.14790
H1301       H  0.91987804  0.07864770  0.68002468     0.14820
C1302       C  0.94301022  0.09662477  0.61961700    -0.24140
H1303       H  0.80489378  0.15249489  0.66558063     0.05030
H1304       H  0.82903362  0.15933385  0.70248080     0.08260
H1305       H  0.80753156  0.12086343  0.69662413     0.08260
H1306       H  0.95808677  0.11888812  0.61424068     0.08240
H1307       H  0.93798173  0.08288143  0.59603965     0.08240
H1308       H  0.95751773  0.08035645  0.63644193     0.05020
C1309       C  0.07040838  0.12044941  0.33554376    -0.20790
C1310       C  0.04951638  0.09571281  0.32261698    -0.07350
C1311       C  0.02127968  0.08651938  0.34137668     0.13510
C1312       C  0.01535744  0.10130672  0.37280432    -0.20840
C1313       C  0.03679398  0.12527124  0.38590974    -0.07360
C1314       C  0.06453985  0.13506150  0.36693451     0.13500
C1315       C  0.08849136  0.16039676  0.38020882    -0.24190
H1316       H  0.09240106  0.12718035  0.32166495     0.14790
H1317       H  0.99326906  0.09492068  0.38675664     0.14820
C1318       C  0.99761095  0.06077905  0.32878591    -0.24140
H1319       H  0.10941984  0.16447956  0.36266741     0.05030
H1320       H  0.09877061  0.15191622  0.40450488     0.08260
H1321       H  0.07575711  0.18432046  0.38398402     0.08260
H1322       H  0.01064041  0.03699876  0.32528685     0.08240
H1323       H  0.98644649  0.06894448  0.30481039     0.08240
H1324       H  0.97736116  0.05646085  0.34695293     0.05020
C1325       C  0.34475415  0.84034853  0.56176652    -0.20790
C1326       C  0.31290621  0.84857271  0.57310198    -0.07350
C1327       C  0.29474280  0.82495259  0.59131895     0.13510
C1328       C  0.30858605  0.79368755  0.59663309    -0.20840
C1329       C  0.34051273  0.78512383  0.58513699    -0.07360
C1330       C  0.35919198  0.80969237  0.56854313     0.13500
C1331       C  0.39487164  0.80561535  0.55914572    -0.24190
H1332       H  0.35925034  0.85854620  0.54837647     0.14790
H1333       H  0.29493889  0.77672012  0.61205699     0.14820
C1334       C  0.26080498  0.83211087  0.60521768    -0.24140
H1335       H  0.40900617  0.82806708  0.56628923     0.05030
H1336       H  0.39712789  0.80172802  0.53166585     0.08260
H1337       H  0.40646032  0.78530436  0.57294702     0.08260
H1338       H  0.24371199  0.83877097  0.58455125     0.08240
H1339       H  0.26221321  0.85259421  0.62371526     0.08240
H1340       H  0.25012836  0.81043454  0.61829460     0.05020
C1341       C  0.28524606  0.10128396  0.41645094    -0.20790
C1342       C  0.30910869  0.07730990  0.42408219    -0.07350
C1343       C  0.34293697  0.08588417  0.42476480     0.13510
C1344       C  0.35200193  0.11811191  0.41724344    -0.20840
C1345       C  0.32845519  0.14163379  0.40760117    -0.07360
C1346       C  0.29448513  0.13377756  0.40909148     0.13500
C1347       C  0.26805600  0.15948707  0.40369303    -0.24190
H1348       H  0.25925845  0.09480161  0.41725314     0.14790
H1349       H  0.37782058  0.12513387  0.41848650     0.14820
C1350       C  0.36984179  0.06120399  0.43224821    -0.24140
H1351       H  0.24290560  0.14853652  0.40459553     0.05030
H1352       H  0.27104347  0.17162321  0.37906865     0.08260
H1353       H  0.26945358  0.17854536  0.42365478     0.08260
H1354       H  0.36759792  0.03967936  0.41509340     0.08240
H1355       H  0.36818050  0.05300176  0.45869350     0.08240
H1356       H  0.39487193  0.07192673  0.42866456     0.05020
C1357       C  0.33361331  0.09586165  0.55406409    -0.20790
C1358       C  0.30554050  0.08239459  0.56970718    -0.07350
C1359       C  0.28689989  0.10290671  0.59148511     0.13510
C1360       C  0.29807518  0.13482335  0.59888412    -0.20840
C1361       C  0.32770261  0.14701525  0.58578290    -0.07360
C1362       C  0.34463363  0.12798744  0.56142974     0.13500
C1363       C  0.37383414  0.14144117  0.54259705    -0.24190
H1364       H  0.34731785  0.08109894  0.53612872     0.14790
H1365       H  0.28450021  0.14962922  0.61677508     0.14820
C1366       C  0.25532784  0.09171322  0.60749571    -0.24140
H1367       H  0.38419932  0.12303813  0.52477532     0.05030
H1368       H  0.39378561  0.14868629  0.56001051     0.08260
H1369       H  0.36589475  0.16308351  0.52777963     0.08260
H1370       H  0.26026230  0.07062046  0.62442871     0.08240
H1371       H  0.23744666  0.08463242  0.58762183     0.08240
H1372       H  0.24377637  0.11151596  0.62284829     0.05020
C1373       C  0.30236184  0.80213261  0.37947923    -0.20790
C1374       C  0.32023721  0.78191224  0.40141711    -0.07350
C1375       C  0.32828970  0.79408999  0.43368429     0.13510
C1376       C  0.31954485  0.82644220  0.44244626    -0.20840
C1377       C  0.30262430  0.84701478  0.41999931    -0.07360
C1378       C  0.29371010  0.83448982  0.38803538     0.13500
C1379       C  0.27585864  0.85494175  0.36222533    -0.24190
H1380       H  0.29520660  0.79248467  0.35522037     0.14790
H1381       H  0.32590988  0.83554153  0.46722566     0.14820
C1382       C  0.34600703  0.77383542  0.45959874    -0.24140
H1383       H  0.27307689  0.84156436  0.33802566     0.05030
H1384       H  0.29000298  0.87786675  0.35716306     0.08260
H1385       H  0.25061473  0.86105509  0.37118518     0.08260
H1386       H  0.36881333  0.78692216  0.46759806     0.08240
H1387       H  0.35321401  0.74907670  0.45037783     0.08240
H1388       H  0.32977745  0.77058024  0.48181664     0.05020
C1389       C  0.14993918  0.06300763  0.36762880    -0.20790
C1390       C  0.13346105  0.04673245  0.39386834    -0.07350
C1391       C  0.09988327  0.03786038  0.38965619     0.13510
C1392       C  0.08539610  0.04138521  0.35799192    -0.20840
C1393       C  0.10306413  0.05463617  0.33078098    -0.07360
C1394       C  0.13510676  0.06736032  0.33625888     0.13500
C1395       C  0.15466624  0.08465667  0.30937353    -0.24190
H1396       H  0.17541665  0.07068753  0.37098120     0.14790
H1397       H  0.06073849  0.03195586  0.35385635     0.14820
C1398       C  0.07946459  0.02321798  0.41749509    -0.24140
H1399       H  0.17732101  0.07025392  0.30360152     0.05030
H1400       H  0.16195014  0.10953618  0.31847436     0.08260
H1401       H  0.14057479  0.08804476  0.28582095     0.08260
H1402       H  0.07911159  0.04038439  0.43924630     0.08240
H1403       H  0.08968501  0.99906395  0.42521859     0.08240
H1404       H  0.05345156  0.01902425  0.40962831     0.05020
C1405       C  0.12742368  0.87716543  0.67600562    -0.20790
C1406       C  0.09358485  0.88441263  0.67651408    -0.07350
C1407       C  0.07865422  0.89657699  0.64680235     0.13510
C1408       C  0.09810071  0.90120973  0.61779534    -0.20840
C1409       C  0.13205725  0.89364416  0.61738316    -0.07360
C1410       C  0.14656207  0.88058107  0.64694926     0.13500
C1411       C  0.18199741  0.86887914  0.64824458    -0.24190
H1412       H  0.13885747  0.86722557  0.69832818     0.14790
H1413       H  0.08669397  0.91148581  0.59557969     0.14820
C1414       C  0.04254108  0.90533763  0.64483083    -0.24140
H1415       H  0.18744341  0.85540902  0.67181074     0.05030
H1416       H  0.19923995  0.89011490  0.64733340     0.08260
H1417       H  0.18691777  0.85168950  0.62708011     0.08260
H1418       H  0.02946694  0.90158777  0.66889456     0.08240
H1419       H  0.03040730  0.89001327  0.62527231     0.08240
H1420       H  0.03969649  0.93157042  0.63776301     0.05020
C1421       C  0.10344982  0.02745457  0.61468194    -0.20790
C1422       C  0.13373556  0.04342852  0.60934173    -0.07350
C1423       C  0.14621771  0.06491773  0.63425654     0.13510
C1424       C  0.12992283  0.06760798  0.66500672    -0.20840
C1425       C  0.10125490  0.04944379  0.67161217    -0.07360
C1426       C  0.08719539  0.02970806  0.64564520     0.13500
C1427       C  0.05739465  0.00789576  0.65086244    -0.24190
H1428       H  0.09396286  0.01058042  0.59584134     0.14790
H1429       H  0.14080679  0.08228403  0.68483975     0.14820
C1430       C  0.17775146  0.08370960  0.62939280    -0.24140
H1431       H  0.06440598  0.98181673  0.64674564     0.05030
H1432       H  0.03810678  0.01358942  0.63207268     0.08260
H1433       H  0.04684281  0.01029284  0.67642422     0.08260
H1434       H  0.17687680  0.09747862  0.60539484     0.08240
H1435       H  0.19858394  0.06607649  0.62943381     0.08240
H1436       H  0.18215352  0.10173903  0.64996277     0.05020
C1437       C  0.14497568  0.85891051  0.36919180    -0.20790
C1438       C  0.13433460  0.88750948  0.38584909    -0.07350
C1439       C  0.11247310  0.90914648  0.36929565     0.13510
C1440       C  0.10220709  0.90191726  0.33638493    -0.20840
C1441       C  0.11212731  0.87286164  0.31989134    -0.07360
C1442       C  0.13407762  0.85107437  0.33662250     0.13500
C1443       C  0.14702907  0.81999620  0.32038767    -0.24190
H1444       H  0.16302767  0.84321314  0.38134458     0.14790
H1445       H  0.08487107  0.91820408  0.32402850     0.14820
C1446       C  0.10054578  0.94026276  0.38607947    -0.24140
H1447       H  0.16038900  0.80430136  0.33869238     0.05030
H1448       H  0.16474156  0.82596579  0.30021317     0.08260
H1449       H  0.12673713  0.80512087  0.30981691     0.08260
H1450       H  0.12185207  0.95671945  0.39150903     0.08240
H1451       H  0.08773006  0.93402094  0.40983776     0.08240
H1452       H  0.08273741  0.95392200  0.37018530     0.05020
C1453       C  0.40692174  0.82881171  0.36239194    -0.20790
C1454       C  0.38897128  0.84441991  0.33678424    -0.07350
C1455       C  0.36385446  0.82645852  0.31989486     0.13510
C1456       C  0.35695194  0.79415261  0.32989773    -0.20840
C1457       C  0.37354858  0.77928331  0.35670010    -0.07360
C1458       C  0.39974627  0.79648375  0.37241595     0.13500
C1459       C  0.42026639  0.78130122  0.39976295    -0.24190
H1460       H  0.42674394  0.84199881  0.37486337     0.14790
H1461       H  0.33688020  0.78096072  0.31792095     0.14820
C1462       C  0.34334589  0.84087208  0.29195020    -0.24140
H1463       H  0.43807949  0.79922508  0.41067193     0.05030
H1464       H  0.43494039  0.76060755  0.38929543     0.08260
H1465       H  0.40420550  0.77246631  0.42030823     0.08260
H1466       H  0.35943757  0.84735870  0.27041035     0.08240
H1467       H  0.32990218  0.86300522  0.30112234     0.08240
H1468       H  0.32451353  0.82317635  0.28252110     0.05020
C1469       C  0.55982263  0.09374825  0.32110709    -0.20790
C1470       C  0.54272984  0.07398140  0.34430721    -0.07350
C1471       C  0.53567456  0.08671561  0.37655567     0.13510
C1472       C  0.54490708  0.11906796  0.38422106    -0.20840
C1473       C  0.56314102  0.13838391  0.36165122    -0.07360
C1474       C  0.56971804  0.12595221  0.32917342     0.13500
C1475       C  0.58482580  0.14670521  0.30187962    -0.24190
H1476       H  0.56453340  0.08449731  0.29602053     0.14790
H1477       H  0.53768897  0.12964423  0.40810705     0.14820
C1478       C  0.51959519  0.06630160  0.40359848    -0.24140
H1479       H  0.56669149  0.14962633  0.28120655     0.05030
H1480       H  0.60716559  0.13434135  0.29170397     0.08260
H1481       H  0.59198629  0.17166373  0.31069326     0.08260
H1482       H  0.53468453  0.04392768  0.40827079     0.08240
H1483       H  0.49451309  0.05848118  0.39657596     0.08240
H1484       H  0.51683382  0.08037722  0.42734634     0.05020
C1485       C  0.40406548  0.13666262  0.35568231    -0.20790
C1486       C  0.37096251  0.14628507  0.35211353    -0.07350
C1487       C  0.34866083  0.12426203  0.33594531     0.13510
C1488       C  0.35944478  0.09255845  0.32685885    -0.20840
C1489       C  0.39166976  0.08182674  0.33379282    -0.07360
C1490       C  0.41459607  0.10478748  0.34715208     0.13500
C1491       C  0.44999937  0.09584535  0.35347980    -0.24190
H1492       H  0.42133408  0.15346485  0.36760836     0.14790
H1493       H  0.34196052  0.07558468  0.31551729     0.14820
C1494       C  0.31321689  0.13266924  0.32854533    -0.24140
H1495       H  0.46475867  0.11717831  0.36262012     0.05030
H1496       H  0.46167113  0.08651597  0.33009655     0.08260
H1497       H  0.45039248  0.07678015  0.37313688     0.08260
H1498       H  0.30619924  0.15721030  0.33808298     0.08240
H1499       H  0.29665492  0.11420906  0.34034544     0.08240
H1500       H  0.30912458  0.13219226  0.30102150     0.05020
C1501       C  0.54504252  0.80331107  0.38459453    -0.20790
C1502       C  0.56189331  0.78326390  0.36145339    -0.07350
C1503       C  0.56637706  0.79452302  0.32828733     0.13510
C1504       C  0.55596611  0.82644022  0.31994047    -0.20840
C1505       C  0.54000508  0.84692994  0.34348342    -0.07360
C1506       C  0.53450808  0.83508716  0.37635185     0.13500
C1507       C  0.51802620  0.85558158  0.40319427    -0.24190
H1508       H  0.53962482  0.79361515  0.40927542     0.14790
H1509       H  0.55951965  0.83496139  0.29445501     0.14820
C1510       C  0.58051941  0.77304815  0.30087563    -0.24140
H1511       H  0.51795750  0.84286589  0.42782493     0.05030
H1512       H  0.49187285  0.86033547  0.39638309     0.08260
H1513       H  0.53149541  0.87924875  0.40643869     0.08260
H1514       H  0.56153822  0.76921117  0.28113453     0.08240
H1515       H  0.58842668  0.74849393  0.30999085     0.08240
H1516       H  0.60225718  0.78533756  0.28941594     0.05020
C1517       C  0.57512298  0.03512107  0.13746098    -0.20790
C1518       C  0.57207190  0.04449505  0.17116314    -0.07350
C1519       C  0.59917454  0.05989443  0.18743240     0.13510
C1520       C  0.62940091  0.06247239  0.17063873    -0.20840
C1521       C  0.63299578  0.05229094  0.13725060    -0.07360
C1522       C  0.60519277  0.03837227  0.12032045     0.13500
C1523       C  0.60698717  0.02342562  0.08567884    -0.24190
H1524       H  0.55473891  0.02267233  0.12510127     0.14790
H1525       H  0.65065627  0.07236123  0.18381297     0.14820
C1526       C  0.59663514  0.07385915  0.22251805    -0.24140
H1527       H  0.60059786  0.99686303  0.08696518     0.05030
H1528       H  0.63191325  0.02563385  0.07434189     0.08260
H1529       H  0.58851350  0.03521755  0.06905105     0.08260
H1530       H  0.59485070  0.05389766  0.24132169     0.08240
H1531       H  0.57471641  0.09024415  0.22440552     0.08240
H1532       H  0.61874292  0.08877887  0.22915873     0.05020
C1533       C  0.33425436  0.06756878  0.18957318    -0.20790
C1534       C  0.35504570  0.04748905  0.17006428    -0.07350
C1535       C  0.34491019  0.03871494  0.13738113     0.13510
C1536       C  0.31254159  0.04636681  0.12706047    -0.20840
C1537       C  0.29127862  0.06580537  0.14703375    -0.07360
C1538       C  0.30338549  0.07809013  0.17793337     0.13500
C1539       C  0.28528231  0.10301886  0.19896383    -0.24190
H1540       H  0.34221198  0.07511172  0.21442995     0.14790
H1541       H  0.30410543  0.03807999  0.10270303     0.14820
C1542       C  0.36799732  0.02188167  0.11321007    -0.24140
H1543       H  0.30233069  0.12345119  0.20580653     0.05030
H1544       H  0.27611031  0.09126676  0.22227603     0.08260
H1545       H  0.26474585  0.11452704  0.18525958     0.08260
H1546       H  0.37682425  0.99828908  0.12356714     0.08240
H1547       H  0.38963589  0.03807434  0.10853061     0.08240
H1548       H  0.35586695  0.01673298  0.08875763     0.05020
C1549       C  0.74725569  0.82948021  0.03775924    -0.20790
C1550       C  0.74888505  0.79495364  0.03781576    -0.07350
C1551       C  0.73218925  0.77794141  0.06396799     0.13510
C1552       C  0.71042758  0.79572442  0.08510475    -0.20840
C1553       C  0.70353357  0.82943985  0.08002539    -0.07360
C1554       C  0.72300314  0.84651069  0.05591975     0.13500
C1555       C  0.71617831  0.88086780  0.04383943    -0.24190
H1556       H  0.76076105  0.84269975  0.01847825     0.14790
H1557       H  0.69653712  0.78249270  0.10399623     0.14820
C1558       C  0.73428510  0.74105270  0.06842628    -0.24140
H1559       H  0.73695229  0.89738111  0.05074793     0.05030
H1560       H  0.69259035  0.89039179  0.05327751     0.08260
H1561       H  0.71378636  0.88085999  0.01606311     0.08260
H1562       H  0.75659195  0.73486399  0.08318969     0.08240
H1563       H  0.73504765  0.72778848  0.04411872     0.08240
H1564       H  0.71261489  0.73150527  0.08248418     0.05020
C1565       C  0.63198729  0.86090699  0.16619009    -0.20790
C1566       C  0.64043976  0.87731640  0.13645276    -0.07350
C1567       C  0.61620352  0.89771828  0.12122765     0.13510
C1568       C  0.58536882  0.90238917  0.13694045    -0.20840
C1569       C  0.57753965  0.88660037  0.16711905    -0.07360
C1570       C  0.60096787  0.86488482  0.18143108     0.13500
C1571       C  0.59316252  0.84501824  0.21240297    -0.24190
H1572       H  0.64919541  0.84374913  0.17710267     0.14790
H1573       H  0.56771277  0.91933893  0.12598599     0.14820
C1574       C  0.62159907  0.91492990  0.08842487    -0.24140
H1575       H  0.61313976  0.82716515  0.21830528     0.05030
H1576       H  0.57003137  0.83078338  0.20841528     0.08260
H1577       H  0.59033849  0.86136286  0.23455395     0.08260
H1578       H  0.60190441  0.90753820  0.07057106     0.08240
H1579       H  0.64572496  0.90917086  0.07704931     0.08240
H1580       H  0.62000524  0.94190953  0.09220996     0.05020
C1581       C  0.31221127  0.89394282  0.12202640    -0.20790
C1582       C  0.29362152  0.86679685  0.13293944    -0.07350
C1583       C  0.30616294  0.84701266  0.15926313     0.13510
C1584       C  0.33687478  0.85492457  0.17375815    -0.20840
C1585       C  0.35532242  0.88220219  0.16288490    -0.07360
C1586       C  0.34287471  0.90169598  0.13642496     0.13500
C1587       C  0.36049214  0.93232388  0.12515154    -0.24190
H1588       H  0.30205186  0.90967328  0.10266885     0.14790
H1589       H  0.34564178  0.84074288  0.19497554     0.14820
C1590       C  0.28675379  0.81905529  0.17427869    -0.24140
H1591       H  0.34665141  0.94544798  0.10518580     0.05030
H1592       H  0.38521910  0.92581627  0.11505300     0.08260
H1593       H  0.36322110  0.94927829  0.14688754     0.08260
H1594       H  0.30107735  0.79582357  0.17181897     0.08240
H1595       H  0.26236570  0.81552402  0.16218037     0.08240
H1596       H  0.28236341  0.82411138  0.20130038     0.05020
C1597       C  0.51734694  0.61177572  0.14151556    -0.20790
C1598       C  0.54167891  0.62736001  0.12206650    -0.07350
C1599       C  0.57171753  0.63702342  0.13734823     0.13510
C1600       C  0.57697952  0.62941823  0.17109404    -0.20840
C1601       C  0.55401920  0.61088642  0.18953341    -0.07360
C1602       C  0.52289264  0.60381796  0.17518476     0.13500
C1603       C  0.49501960  0.58915636  0.19527256    -0.24190
H1604       H  0.49356765  0.60628065  0.13047361     0.14790
H1605       H  0.60002946  0.63649358  0.18289482     0.14820
C1606       C  0.59911209  0.65378468  0.11822665    -0.24140
H1607       H  0.47342804  0.58306340  0.17926490     0.05030
H1608       H  0.48659490  0.60706919  0.21445812     0.08260
H1609       H  0.50285510  0.56638060  0.20793199     0.08260
H1610       H  0.59099272  0.67854582  0.10986927     0.08240
H1611       H  0.60624871  0.63848701  0.09623228     0.08240
H1612       H  0.62154650  0.65729518  0.13389858     0.05020
C1613       C  0.37886616  0.63929014  0.14402132    -0.20790
C1614       C  0.39843501  0.61824885  0.12391199    -0.07350
C1615       C  0.40952456  0.58822030  0.13800760     0.13510
C1616       C  0.40149184  0.58068084  0.17130148    -0.20840
C1617       C  0.38028598  0.60040366  0.19085199    -0.07360
C1618       C  0.36950256  0.63069430  0.17702374     0.13500
C1619       C  0.34770105  0.65425466  0.19609165    -0.24190
H1620       H  0.37031680  0.66251707  0.13382614     0.14790
H1621       H  0.41080086  0.55803658  0.18127608     0.14820
C1622       C  0.42809636  0.56257220  0.11790441    -0.24140
H1623       H  0.32422094  0.65798028  0.18220194     0.05030
H1624       H  0.36044496  0.67838610  0.19871183     0.08260
H1625       H  0.34165601  0.64533133  0.22152565     0.08260
H1626       H  0.45259570  0.57203958  0.11020458     0.08240
H1627       H  0.41346465  0.55554323  0.09543287     0.08240
H1628       H  0.43254947  0.53971636  0.13250073     0.05020
C1629       C  0.40836809  0.59368836  0.86776366    -0.20790
C1630       C  0.39249121  0.62003707  0.88444879    -0.07350
C1631       C  0.36720590  0.63756276  0.86726692     0.13510
C1632       C  0.35824201  0.62770785  0.83487432    -0.20840
C1633       C  0.37304094  0.60057306  0.81902467    -0.07360
C1634       C  0.39897140  0.58393981  0.83522047     0.13500
C1635       C  0.41650946  0.55594716  0.81799219    -0.24190
H1636       H  0.42817010  0.58053255  0.88017492     0.14790
H1637       H  0.33822182  0.64030059  0.82219718     0.14820
C1638       C  0.34875925  0.66633456  0.88246815    -0.24140
H1639       H  0.43278106  0.54228908  0.83546256     0.05030
H1640       H  0.43084811  0.56551418  0.79647707     0.08260
H1641       H  0.39881448  0.53817348  0.80758502     0.08260
H1642       H  0.36626253  0.68658680  0.88851467     0.08240
H1643       H  0.33538500  0.65829610  0.90533093     0.08240
H1644       H  0.32999307  0.67659653  0.86505194     0.05020
C1645       C  0.51619838  0.61216725  0.86205878    -0.20790
C1646       C  0.54178088  0.62494422  0.88168494    -0.07350
C1647       C  0.57360689  0.62823655  0.86739368     0.13510
C1648       C  0.57915901  0.61635211  0.83465232    -0.20840
C1649       C  0.55462747  0.59851172  0.81720140    -0.07360
C1650       C  0.52216878  0.59859210  0.83041218     0.13500
C1651       C  0.49321367  0.58265620  0.81378920    -0.24190
H1652       H  0.49134881  0.61102395  0.87226727     0.14790
H1653       H  0.60359907  0.61832936  0.82374247     0.14820
C1654       C  0.60227141  0.64187310  0.88710903    -0.24140
H1655       H  0.48252173  0.56462372  0.83143417     0.05030
H1656       H  0.49929421  0.56889667  0.79109498     0.08260
H1657       H  0.47464083  0.60180890  0.80762057     0.08260
H1658       H  0.60600836  0.62700370  0.91012512     0.08240
H1659       H  0.59739079  0.66787641  0.89409282     0.08240
H1660       H  0.62561036  0.64118961  0.87243748     0.05020
C1661       C  0.58922290  0.81791706  0.05735476    -0.20790
C1662       C  0.57708265  0.79531409  0.08065411    -0.07350
C1663       C  0.59668983  0.78770104  0.10894214     0.13510
C1664       C  0.62777460  0.80308290  0.11318073    -0.20840
C1665       C  0.64047052  0.82516457  0.08919271    -0.07360
C1666       C  0.62101610  0.83152215  0.06042209     0.13500
C1667       C  0.63380727  0.84963857  0.03065518    -0.24190
H1668       H  0.57512985  0.82245852  0.03468047     0.14790
H1669       H  0.64244632  0.79759948  0.13517830     0.14820
C1670       C  0.58470471  0.76343794  0.13470045    -0.24140
H1671       H  0.62114328  0.87367533  0.02792978     0.05030
H1672       H  0.62899085  0.83417106  0.00836086     0.08260
H1673       H  0.66053129  0.85302085  0.03129520     0.08260
H1674       H  0.58113796  0.73883850  0.12297457     0.08240
H1675       H  0.56083457  0.77205800  0.14532266     0.08240
H1676       H  0.60260600  0.76072936  0.15562211     0.05020
C1677       C  0.31483372  0.83764669  0.06980209    -0.20790
C1678       C  0.28788666  0.82001118  0.08340664    -0.07350
C1679       C  0.29298338  0.78668843  0.09245724     0.13510
C1680       C  0.32411714  0.77230677  0.08740886    -0.20840
C1681       C  0.35123879  0.79028723  0.07490583    -0.07360
C1682       C  0.34664539  0.82393655  0.06712615     0.13500
C1683       C  0.37491053  0.84599684  0.05701997    -0.24190
H1684       H  0.31134147  0.86319894  0.06296315     0.14790
H1685       H  0.32724097  0.74649367  0.09371526     0.14820
C1686       C  0.26677100  0.76537097  0.10816640    -0.24140
H1687       H  0.36671661  0.87185952  0.05316478     0.05030
H1688       H  0.38621879  0.83736839  0.03330758     0.08260
H1689       H  0.39387732  0.84617513  0.07713680     0.08260
H1690       H  0.24431085  0.77910625  0.11495983     0.08240
H1691       H  0.27641565  0.75437314  0.13166661     0.08240
H1692       H  0.25999860  0.74514438  0.09061661     0.05020
C1693       C  0.69425537  0.89583679  0.83259921    -0.20790
C1694       C  0.69753191  0.88654746  0.86655427    -0.07350
C1695       C  0.72421722  0.90112395  0.88454645     0.13510
C1696       C  0.74777528  0.92085467  0.86715759    -0.20840
C1697       C  0.74167942  0.93276557  0.83436754    -0.07360
C1698       C  0.71280744  0.92108204  0.81813928     0.13500
C1699       C  0.70027493  0.93434515  0.78520444    -0.24190
H1700       H  0.67481620  0.88534374  0.81730503     0.14790
H1701       H  0.76912427  0.92993285  0.88070299     0.14820
C1702       C  0.72686400  0.89995798  0.92212729    -0.24140
H1703       H  0.69638707  0.91373214  0.76719010     0.05030
H1704       H  0.71775954  0.95143418  0.77336862     0.08260
H1705       H  0.67636017  0.94720572  0.78924419     0.08260
H1706       H  0.74927043  0.88602847  0.92959892     0.08240
H1707       H  0.70471739  0.88919265  0.93404070     0.08240
H1708       H  0.72896628  0.92546112  0.93212315     0.05020
C1709       C  0.68362988  0.81503706  0.95819658    -0.20790
C1710       C  0.69502399  0.82648544  0.92697614    -0.07350
C1711       C  0.72882919  0.81938057  0.91940792     0.13510
C1712       C  0.74998200  0.80612263  0.94486168    -0.20840
C1713       C  0.73706274  0.79328039  0.97526851    -0.07360
C1714       C  0.70237601  0.79536679  0.97939218     0.13500
C1715       C  0.68307002  0.77437831  0.00357266    -0.24190
H1716       H  0.65818801  0.81817182  0.96512803     0.14790
H1717       H  0.77621806  0.80418343  0.93995120     0.14820
C1718       C  0.74285224  0.82242060  0.88468749    -0.24140
H1719       H  0.66162178  0.76302175  0.99048905     0.05030
H1720       H  0.67360894  0.78958869  0.02460649     0.08260
H1721       H  0.69770674  0.75345761  0.01278680     0.08260
H1722       H  0.76240698  0.84161334  0.88422348     0.08240
H1723       H  0.72366043  0.82799993  0.86582623     0.08240
H1724       H  0.75401860  0.79848654  0.87715336     0.05020
C1725       C  0.62837598  0.79426904  0.89277826    -0.20790
C1726       C  0.63443567  0.82438204  0.90902970    -0.07350
C1727       C  0.60850069  0.83906898  0.92808810     0.13510
C1728       C  0.57796343  0.82300377  0.93086387    -0.20840
C1729       C  0.57288695  0.79184648  0.91668414    -0.07360
C1730       C  0.59786535  0.77799827  0.89607442     0.13500
C1731       C  0.59233029  0.74619353  0.87722719    -0.24190
H1732       H  0.64771163  0.78349124  0.87743776     0.14790
H1733       H  0.55909608  0.83355065  0.94698446     0.14820
C1734       C  0.61264931  0.87036023  0.94793065    -0.24140
H1735       H  0.61354967  0.74011110  0.86063923     0.05030
H1736       H  0.56991609  0.74839862  0.86133198     0.08260
H1737       H  0.58920222  0.72545177  0.89487737     0.08260
H1738       H  0.63892096  0.87763571  0.95042591     0.08240
H1739       H  0.60245822  0.86708688  0.97335690     0.08240
H1740       H  0.59771408  0.89028418  0.93660803     0.05020
C1741       C  0.70925909  0.04271290  0.82704252    -0.20790
C1742       C  0.70266152  0.04288813  0.86180052    -0.07350
C1743       C  0.72014214  0.01967028  0.88158849     0.13510
C1744       C  0.74389890  0.99921114  0.86677755    -0.20840
C1745       C  0.74612716  0.99500339  0.83200398    -0.07360
C1746       C  0.72894656  0.01812516  0.81164727     0.13500
C1747       C  0.72896101  0.01765665  0.77396332    -0.24190
H1748       H  0.69605098  0.05987924  0.81113892     0.14790
H1749       H  0.75825638  0.98338355  0.88288054     0.14820
C1750       C  0.71045822  0.01083310  0.91656649    -0.24140
H1751       H  0.70320301  0.01513306  0.76466586     0.05030
H1752       H  0.73934791  0.04126521  0.76474939     0.08260
H1753       H  0.74341503  0.99740810  0.76296124     0.08260
H1754       H  0.68327742  0.01014980  0.91855193     0.08240
H1755       H  0.72272185  0.02765622  0.93434923     0.08240
H1756       H  0.71880995  0.98563303  0.92339010     0.05020
C1757       C  0.31243283  0.82654999  0.92874031    -0.20790
C1758       C  0.29277372  0.81174091  0.90385963    -0.07350
C1759       C  0.30432478  0.78299856  0.88763629     0.13510
C1760       C  0.33586129  0.77067047  0.89572155    -0.20840
C1761       C  0.35567626  0.78581815  0.92037972    -0.07360
C1762       C  0.34357672  0.81408996  0.93718249     0.13500
C1763       C  0.36191344  0.82951945  0.96608342    -0.24190
H1764       H  0.30231686  0.84685566  0.94305610     0.14790
H1765       H  0.34436850  0.74800503  0.88408940     0.14820
C1766       C  0.28265596  0.76428273  0.86347505    -0.24140
H1767       H  0.34812992  0.85057757  0.97724238     0.05030
H1768       H  0.38623441  0.83887508  0.95744481     0.08260
H1769       H  0.36552253  0.81077399  0.98595583     0.08260
H1770       H  0.27531052  0.78020041  0.84225253     0.08240
H1771       H  0.26001110  0.75579932  0.87659969     0.08240
H1772       H  0.29546536  0.74225774  0.85311374     0.05020
C1773       C  0.56404586  0.82934754  0.67358110    -0.20790
C1774       C  0.53635416  0.84505524  0.65951909    -0.07350
C1775       C  0.51653194  0.82735901  0.63612414     0.13510
C1776       C  0.52381074  0.79430075  0.62949037    -0.20840
C1777       C  0.55276130  0.77975532  0.64091730    -0.07360
C1778       C  0.57311920  0.79727640  0.66378768     0.13500
C1779       C  0.60434328  0.78290330  0.67821798    -0.24190
H1780       H  0.57938181  0.84248199  0.69147880     0.14790
H1781       H  0.50858487  0.78042756  0.61214660     0.14820
C1782       C  0.48946180  0.84313160  0.61544534    -0.24140
H1783       H  0.62565757  0.79904755  0.67207004     0.05030
H1784       H  0.60960167  0.75779759  0.66845440     0.08260
H1785       H  0.60204638  0.78141551  0.70591395     0.08260
H1786       H  0.50028766  0.86271951  0.59944842     0.08240
H1787       H  0.46997197  0.85399967  0.63119957     0.08240
H1788       H  0.47686315  0.82511576  0.59873649     0.05020
C1789       C  0.35610106  0.08643294  0.66692911    -0.20790
C1790       C  0.38542360  0.07275576  0.65406931    -0.07350
C1791       C  0.40601559  0.09230606  0.63330407     0.13510
C1792       C  0.39730572  0.12498329  0.62704062    -0.20840
C1793       C  0.36835903  0.13863392  0.64016343    -0.07360
C1794       C  0.34730336  0.11915755  0.66037100     0.13500
C1795       C  0.31662128  0.13260158  0.67696750    -0.24190
H1796       H  0.34023948  0.07179238  0.68296526     0.14790
H1797       H  0.41365781  0.14047967  0.61244409     0.14820
C1798       C  0.43786104  0.07986083  0.61848529    -0.24140
H1799       H  0.31900068  0.13044010  0.70460860     0.05030
H1800       H  0.29476344  0.11803149  0.66894431     0.08260
H1801       H  0.31225438  0.15892838  0.67097672     0.08260
H1802       H  0.43304030  0.05828635  0.60199091     0.08240
H1803       H  0.45507641  0.07325469  0.63899355     0.08240
H1804       H  0.45015049  0.09877262  0.60285757     0.05020
C1805       C  0.52389305  0.09022620  0.62728351    -0.20790
C1806       C  0.53584548  0.07812646  0.65788116    -0.07350
C1807       C  0.55576000  0.09917318  0.67805225     0.13510
C1808       C  0.56361926  0.13092852  0.66653985    -0.20840
C1809       C  0.55219837  0.14278057  0.63558107    -0.07360
C1810       C  0.53160235  0.12204931  0.61594863     0.13500
C1811       C  0.51797691  0.13198661  0.58246216    -0.24190
H1812       H  0.50908644  0.07432557  0.61137761     0.14790
H1813       H  0.58047423  0.14593321  0.68110190     0.14820
C1814       C  0.56920184  0.08879691  0.71168435    -0.24140
H1815       H  0.49072853  0.13427715  0.58397312     0.05030
H1816       H  0.52430606  0.11298638  0.56340407     0.08260
H1817       H  0.52793662  0.15562371  0.57382145     0.08260
H1818       H  0.58641656  0.06770522  0.70851079     0.08240
H1819       H  0.54854626  0.08194882  0.72862693     0.08240
H1820       H  0.58325410  0.10894705  0.72414503     0.05020
C1821       C  0.41838012  0.81846368  0.66301685    -0.20790
C1822       C  0.39240354  0.83971943  0.67173133    -0.07350
C1823       C  0.35977030  0.82745840  0.67082841     0.13510
C1824       C  0.35411476  0.79565128  0.65789120    -0.20840
C1825       C  0.37965198  0.77735444  0.64257993    -0.07360
C1826       C  0.41251109  0.78786894  0.64750427     0.13500
C1827       C  0.44151919  0.76726224  0.63658289    -0.24190
H1828       H  0.44344433  0.82609079  0.66807469     0.14790
H1829       H  0.32937954  0.78557794  0.65833170     0.14820
C1830       C  0.33081276  0.84801125  0.68209932    -0.24140
H1831       H  0.46462017  0.77823909  0.64593472     0.05030
H1832       H  0.44273471  0.76494898  0.60896770     0.08260
H1833       H  0.44046830  0.74237895  0.64745449     0.08260
H1834       H  0.32970650  0.87108605  0.66723076     0.08240
H1835       H  0.33334817  0.85412810  0.70912032     0.08240
H1836       H  0.30701594  0.83474753  0.67862647     0.05020
C1837       C  0.34699082  0.02310986  0.85900322    -0.20790
C1838       C  0.35425073  0.04493406  0.83312590    -0.07350
C1839       C  0.33049679  0.06879830  0.82412774     0.13510
C1840       C  0.30034331  0.07047347  0.84186279    -0.20840
C1841       C  0.29270638  0.04829087  0.86797775    -0.07360
C1842       C  0.31625617  0.02338760  0.87522233     0.13500
C1843       C  0.30851028  0.99449026  0.89669226    -0.24190
H1844       H  0.36445743  0.00353210  0.86440719     0.14790
H1845       H  0.28258994  0.08934407  0.83531453     0.14820
C1846       C  0.33708743  0.09263710  0.79605362    -0.24140
H1847       H  0.28735927  0.98150218  0.88509360     0.05030
H1848       H  0.32946287  0.97684727  0.89791301     0.08260
H1849       H  0.30348781  0.00196882  0.92262572     0.08260
H1850       H  0.34035225  0.07905595  0.77206794     0.08240
H1851       H  0.35986097  0.10694794  0.80159321     0.08240
H1852       H  0.31637988  0.11033019  0.79283570     0.05020
C1853       C  0.58505188  0.90680155  0.86384938    -0.20790
C1854       C  0.57217798  0.88677882  0.83820135    -0.07350
C1855       C  0.59079168  0.85939350  0.82700769     0.13510
C1856       C  0.62202775  0.85339341  0.84100958    -0.20840
C1857       C  0.63592589  0.87506653  0.86478026    -0.07360
C1858       C  0.61798047  0.90323010  0.87470320     0.13500
C1859       C  0.63421569  0.93045972  0.89482644    -0.24190
H1860       H  0.57050961  0.92732574  0.87291701     0.14790
H1861       H  0.63613837  0.83206907  0.83295942     0.14820
C1862       C  0.57754800  0.83624252  0.80057901    -0.24140
H1863       H  0.65350106  0.94245205  0.87925295     0.05030
H1864       H  0.64640434  0.92098526  0.91760217     0.08260
H1865       H  0.61611607  0.94957883  0.90267782     0.08260
H1866       H  0.57406562  0.84944743  0.77653153     0.08240
H1867       H  0.55348997  0.82596518  0.80894820     0.08240
H1868       H  0.59467254  0.81531156  0.79587568     0.05020
C1869       C  0.59324403  0.07451026  0.82164079    -0.20790
C1870       C  0.57807113  0.04367235  0.82554112    -0.07350
C1871       C  0.59663486  0.01771677  0.83962221     0.13510
C1872       C  0.62753602  0.02404056  0.85405465    -0.20840
C1873       C  0.64150526  0.05547354  0.85298198    -0.07360
C1874       C  0.62529200  0.08039084  0.83418591     0.13500
C1875       C  0.64193628  0.11231684  0.82502692    -0.24190
H1876       H  0.58077143  0.09350559  0.80736469     0.14790
H1877       H  0.64080354  0.00439425  0.86657317     0.14820
C1878       C  0.58477924  0.98278045  0.83757111    -0.24140
H1879       H  0.62670448  0.13350422  0.83352992     0.05030
H1880       H  0.64438736  0.11370338  0.79734160     0.08260
H1881       H  0.66705212  0.11451046  0.83594381     0.08260
H1882       H  0.58003024  0.97556292  0.81116714     0.08240
H1883       H  0.56184394  0.97995436  0.85254475     0.08240
H1884       H  0.60409492  0.96593270  0.84666675     0.05020
C1885       C  0.34290168  0.90068962  0.86817502    -0.20790
C1886       C  0.35552173  0.88537053  0.83915662    -0.07350
C1887       C  0.33772416  0.85884571  0.82465624     0.13510
C1888       C  0.30685835  0.85005967  0.83775826    -0.20840
C1889       C  0.29324663  0.86647720  0.86552224    -0.07360
C1890       C  0.31219985  0.89107205  0.88188572     0.13500
C1891       C  0.30083253  0.90684211  0.91414102    -0.24190
H1892       H  0.35637167  0.92100343  0.87945543     0.14790
H1893       H  0.29266206  0.83082314  0.82563769     0.14820
C1894       C  0.35109516  0.83968318  0.79508600    -0.24140
H1895       H  0.29594945  0.93310438  0.91026758     0.05030
H1896       H  0.32023731  0.90409839  0.93361614     0.08260
H1897       H  0.27767947  0.89603018  0.92395528     0.08260
H1898       H  0.37602358  0.82997007  0.80120354     0.08240
H1899       H  0.35266109  0.85553216  0.77256759     0.08240
H1900       H  0.33502748  0.81837185  0.78858072     0.05020
C1901       C  0.58431847  0.30630654  0.87684136    -0.20790
C1902       C  0.55356698  0.29135990  0.88251076    -0.07350
C1903       C  0.53682561  0.27723319  0.85493324     0.13510
C1904       C  0.54771536  0.28494816  0.82250189    -0.20840
C1905       C  0.57091428  0.31063469  0.81782598    -0.07360
C1906       C  0.59425249  0.31378198  0.84394010     0.13500
C1907       C  0.63057505  0.31424766  0.83629433    -0.24190
H1908       H  0.60089355  0.31100315  0.89766933     0.14790
H1909       H  0.53476147  0.27407587  0.80150600     0.14820
C1910       C  0.50714341  0.25498623  0.85865656    -0.24140
H1911       H  0.64070365  0.28909313  0.84013629     0.05030
H1912       H  0.64382073  0.33095126  0.85370622     0.08260
H1913       H  0.63545010  0.32116991  0.80984595     0.08260
H1914       H  0.50047789  0.25021768  0.88515031     0.08240
H1915       H  0.51234135  0.23085323  0.84651036     0.08240
H1916       H  0.48542659  0.26635372  0.84623470     0.05020
C1917       C  0.39461547  0.34505648  0.16321129    -0.20790
C1918       C  0.37037218  0.32634280  0.17968916    -0.07350
C1919       C  0.35808521  0.29760804  0.16330340     0.13510
C1920       C  0.37013551  0.28894557  0.13141798    -0.20840
C1921       C  0.39381332  0.30809525  0.11459320    -0.07360
C1922       C  0.40663130  0.33639455  0.13121330     0.13500
C1923       C  0.43275418  0.35801302  0.11567187    -0.24190
H1924       H  0.40395949  0.36709053  0.17517226     0.14790
H1925       H  0.36030161  0.26703945  0.11934248     0.14820
C1926       C  0.33156562  0.27567956  0.17764292    -0.24140
H1927       H  0.43930456  0.37921670  0.13210146     0.05030
H1928       H  0.42363369  0.36816739  0.09157916     0.08260
H1929       H  0.45569691  0.34354674  0.11150474     0.08260
H1930       H  0.31972000  0.28622837  0.20025635     0.08240
H1931       H  0.34222611  0.25117082  0.18368621     0.08240
H1932       H  0.31166699  0.27202584  0.15882503     0.05020
C1933       C  0.56587212  0.29458351  0.16948341    -0.20790
C1934       C  0.55864840  0.32724758  0.17789479    -0.07350
C1935       C  0.54296781  0.34816770  0.15447531     0.13510
C1936       C  0.53608983  0.33591800  0.12271309    -0.20840
C1937       C  0.54408584  0.30344229  0.11386051    -0.07360
C1938       C  0.55932946  0.28235224  0.13749687     0.13500
C1939       C  0.56828437  0.24695709  0.12994293    -0.24190
H1940       H  0.57718252  0.27873711  0.18805700     0.14790
H1941       H  0.52407759  0.35199263  0.10477160     0.14820
C1942       C  0.53205763  0.38296773  0.16207816    -0.24140
H1943       H  0.57918444  0.23442595  0.15206092     0.05030
H1944       H  0.58698356  0.24596665  0.10959315     0.08260
H1945       H  0.54585313  0.23291932  0.12255555     0.08260
H1946       H  0.53858637  0.39101239  0.18769878     0.08240
H1947       H  0.50479064  0.38477197  0.15936220     0.08240
H1948       H  0.54369119  0.40025609  0.14406872     0.05020
C1949       C  0.37161528  0.30001091  0.86171030    -0.20790
C1950       C  0.39982060  0.31189963  0.87838192    -0.07350
C1951       C  0.41979377  0.33583800  0.86209391     0.13510
C1952       C  0.41126289  0.34639792  0.82993537    -0.20840
C1953       C  0.38234993  0.33607678  0.81400815    -0.07360
C1954       C  0.36228911  0.31206640  0.83006349     0.13500
C1955       C  0.33101466  0.29838148  0.81497009    -0.24190
H1956       H  0.35622953  0.28159654  0.87369880     0.14790
H1957       H  0.42727356  0.36353893  0.81743022     0.14820
C1958       C  0.45012312  0.35110026  0.87791409    -0.24140
H1959       H  0.31014811  0.30205336  0.83269088     0.05030
H1960       H  0.33400750  0.27150710  0.81041064     0.08260
H1961       H  0.32432272  0.31033580  0.79102026     0.08260
H1962       H  0.46899611  0.33182345  0.88274592     0.08240
H1963       H  0.44326919  0.36402351  0.90148949     0.08240
H1964       H  0.46173278  0.36991766  0.86154490     0.05020
C1965       C  0.57878876  0.09658582  0.92740764    -0.20790
C1966       C  0.57598165  0.13016561  0.91977747    -0.07350
C1967       C  0.60325901  0.14662379  0.90499717     0.13510
C1968       C  0.63329876  0.13009841  0.90155953    -0.20840
C1969       C  0.63667733  0.09677235  0.90973896    -0.07360
C1970       C  0.60855793  0.07945804  0.92200736     0.13500
C1971       C  0.60888874  0.04334729  0.93048064    -0.24190
H1972       H  0.55808754  0.08386655  0.93881745     0.14790
H1973       H  0.65405346  0.14323263  0.89099983     0.14820
C1974       C  0.60111260  0.18160186  0.89208634    -0.24140
H1975       H  0.60381976  0.04004998  0.95761830     0.05030
H1976       H  0.63268033  0.03153365  0.92456993     0.08260
H1977       H  0.58939296  0.03038362  0.91592445     0.08260
H1978       H  0.60071493  0.19957943  0.91308357     0.08240
H1979       H  0.57867580  0.18449705  0.87633479     0.08240
H1980       H  0.62279138  0.18801970  0.87629192     0.05020
C1981       C  0.30593356  0.13497252  0.11727998    -0.20790
C1982       C  0.29002437  0.11162421  0.09675583    -0.07350
C1983       C  0.30551718  0.10096863  0.06692049     0.13510
C1984       C  0.33642562  0.11411473  0.05809629    -0.20840
C1985       C  0.35196691  0.13794432  0.07829954    -0.07360
C1986       C  0.33665373  0.14833133  0.10832287     0.13500
C1987       C  0.35257725  0.17379353  0.13071950    -0.24190
H1988       H  0.29376977  0.14336521  0.13992641     0.14790
H1989       H  0.34769946  0.10686302  0.03451608     0.14820
C1990       C  0.28970097  0.07608300  0.04385374    -0.24140
H1991       H  0.33763644  0.17853258  0.15361301     0.05030
H1992       H  0.35527970  0.19747805  0.11712409     0.08260
H1993       H  0.37735004  0.16500453  0.13866203     0.08260
H1994       H  0.28382489  0.08814695  0.01965847     0.08240
H1995       H  0.26642375  0.06561534  0.05376981     0.08240
H1996       H  0.30689995  0.05509193  0.03996697     0.05020
C1997       C  0.61874608  0.09284909  0.06052621    -0.20790
C1998       C  0.63515221  0.10042596  0.09053699    -0.07350
C1999       C  0.62121775  0.12427626  0.11244720     0.13510
C2000       C  0.58936837  0.13641034  0.10590401    -0.20840
C2001       C  0.57192443  0.12697412  0.07702008    -0.07360
C2002       C  0.58714961  0.10544004  0.05366820     0.13500
C2003       C  0.57092548  0.09691712  0.02073264    -0.24190
H2004       H  0.63063813  0.07657138  0.04259195     0.14790
H2005       H  0.57897307  0.15528721  0.12210466     0.14820
C2006       C  0.64120861  0.13986295  0.14028398    -0.24140
H2007       H  0.58655709  0.08018088  0.00534858     0.05030
H2008       H  0.56655439  0.11969895  0.00601535     0.08260
H2009       H  0.54701681  0.08430802  0.02539219     0.08260
H2010       H  0.66243455  0.15354636  0.12957269     0.08240
H2011       H  0.65115617  0.12129439  0.15760608     0.08240
H2012       H  0.62624433  0.15760616  0.15518110     0.05020
C2013       C  0.34852175  0.10392543  0.93915964    -0.20790
C2014       C  0.35457703  0.13223449  0.92021360    -0.07350
C2015       C  0.33064688  0.14270896  0.89688379     0.13510
C2016       C  0.30056758  0.12557222  0.89447936    -0.20840
C2017       C  0.29305371  0.09868491  0.91549849    -0.07360
C2018       C  0.31830798  0.08708686  0.93716915     0.13500
C2019       C  0.31504113  0.05702689  0.95856553    -0.24190
H2020       H  0.36693350  0.09568507  0.95703746     0.14790
H2021       H  0.28317844  0.13277937  0.87527190     0.14820
C2022       C  0.33705342  0.17145597  0.87391631    -0.24140
H2023       H  0.32039864  0.06363274  0.98482736     0.05030
H2024       H  0.33399506  0.03872841  0.95090006     0.08260
H2025       H  0.29030956  0.04580158  0.95715166     0.08260
H2026       H  0.35996032  0.16690590  0.85926706     0.08240
H2027       H  0.33981087  0.19455369  0.88863320     0.08240
H2028       H  0.31644191  0.17514819  0.85592452     0.05020
C2029       C  0.83139678  0.57020471  0.32751910    -0.20790
C2030       C  0.84162341  0.53717442  0.32828384    -0.07350
C2031       C  0.81737620  0.51254797  0.33236018     0.13510
C2032       C  0.78650238  0.52126142  0.34565592    -0.20840
C2033       C  0.77840560  0.55449941  0.35126297    -0.07360
C2034       C  0.79907517  0.57886512  0.33679059     0.13500
C2035       C  0.78738643  0.61341598  0.32991156    -0.24190
H2036       H  0.84858684  0.58927170  0.31987879     0.14790
H2037       H  0.76909109  0.50203886  0.35232892     0.14820
C2038       C  0.82177386  0.47824465  0.31884233    -0.24140
H2039       H  0.80432132  0.63165070  0.34157229     0.05030
H2040       H  0.76184688  0.61771251  0.33907652     0.08260
H2041       H  0.78754864  0.61762675  0.30242487     0.08260
H2042       H  0.84754360  0.47223138  0.31180546     0.08240
H2043       H  0.80656324  0.47570044  0.29584652     0.08240
H2044       H  0.81284705  0.46030676  0.33742337     0.05020
C2045       C  0.10219389  0.37855774  0.32184449    -0.20790
C2046       C  0.07780854  0.38958986  0.34442742    -0.07350
C2047       C  0.08464309  0.38898005  0.37911940     0.13510
C2048       C  0.11572764  0.37851910  0.39013410    -0.20840
C2049       C  0.14080644  0.36870260  0.36779278    -0.07360
C2050       C  0.13358055  0.36820140  0.33305459     0.13500
C2051       C  0.15807177  0.35637132  0.30721827    -0.24190
H2052       H  0.09693323  0.37845727  0.29518777     0.14790
H2053       H  0.12087889  0.37943448  0.41659404     0.14820
C2054       C  0.05918111  0.39865540  0.40498307    -0.24140
H2055       H  0.16404047  0.37681210  0.28978022     0.05030
H2056       H  0.14710289  0.33566582  0.29269588     0.08260
H2057       H  0.18142208  0.34733160  0.31837537     0.08260
H2058       H  0.03637675  0.38380994  0.40137101     0.08240
H2059       H  0.05337132  0.42530255  0.40288159     0.08240
H2060       H  0.06811876  0.39430512  0.43093246     0.05020
C2061       C  0.10048576  0.51704952  0.34363193    -0.20790
C2062       C  0.08095931  0.54167383  0.32937160    -0.07350
C2063       C  0.09543520  0.57278066  0.32276059     0.13510
C2064       C  0.12822333  0.57883220  0.33307161    -0.20840
C2065       C  0.14652483  0.55519544  0.35117112    -0.07360
C2066       C  0.13254528  0.52339769  0.35494115     0.13500
C2067       C  0.14908677  0.49570115  0.37278500    -0.24190
H2068       H  0.09008509  0.49268588  0.34755867     0.14790
H2069       H  0.13885494  0.60305189  0.32922665     0.14820
C2070       C  0.07618305  0.60023901  0.30659507    -0.24140
H2071       H  0.13215165  0.48575512  0.39212517     0.05030
H2072       H  0.17168932  0.50322345  0.38598630     0.08260
H2073       H  0.15448404  0.47587818  0.35432962     0.08260
H2074       H  0.05379377  0.60580857  0.32170250     0.08240
H2075       H  0.06890477  0.59296196  0.28077484     0.08240
H2076       H  0.09099358  0.62324418  0.30478638     0.05020
C2077       C  0.83455221  0.36226737  0.33357583    -0.20790
C2078       C  0.84972311  0.39048646  0.34736024    -0.07350
C2079       C  0.83207113  0.40920007  0.37170109     0.13510
C2080       C  0.79899914  0.40126126  0.37848542    -0.20840
C2081       C  0.78465183  0.37210198  0.36637719    -0.07360
C2082       C  0.80267973  0.35225294  0.34345714     0.13500
C2083       C  0.78843743  0.32092862  0.32886753    -0.24190
H2084       H  0.84788423  0.34760034  0.31527405     0.14790
H2085       H  0.78498140  0.41632093  0.39595616     0.14820
C2086       C  0.84759357  0.43693670  0.39175684    -0.24140
H2087       H  0.80604884  0.30871225  0.31143498     0.05030
H2088       H  0.76543013  0.32585509  0.31475008     0.08260
H2089       H  0.78272503  0.30329654  0.34898183     0.08260
H2090       H  0.85509036  0.45766942  0.37549254     0.08240
H2091       H  0.86966517  0.42770738  0.40527354     0.08240
H2092       H  0.83028464  0.44712607  0.41078202     0.05020
C2093       C  0.07812353  0.31143936  0.15135364    -0.20790
C2094       C  0.05346597  0.29194346  0.13594077    -0.07350
C2095       C  0.02090283  0.30450794  0.13409667     0.13510
C2096       C  0.01404688  0.33552340  0.14806594    -0.20840
C2097       C  0.03870439  0.35480160  0.16316281    -0.07360
C2098       C  0.07120813  0.34275679  0.16457265     0.13500
C2099       C  0.09822945  0.36230253  0.18136876    -0.24190
H2100       H  0.10242509  0.30113137  0.15530723     0.14790
H2101       H  0.98878830  0.34376505  0.14909867     0.14820
C2102       C  0.99248335  0.28545418  0.11901209    -0.24140
H2103       H  0.12240139  0.34935655  0.18005895     0.05030
H2104       H  0.09203237  0.36639252  0.20818717     0.08260
H2105       H  0.10092638  0.38651890  0.16874476     0.08260
H2106       H  0.00014747  0.26186530  0.10729635     0.08240
H2107       H  0.98063945  0.30047581  0.09915655     0.08240
H2108       H  0.97390307  0.28004259  0.13875332     0.05020
C2109       C  0.06820308  0.59315522  0.18022635    -0.20790
C2110       C  0.04234767  0.57488624  0.16573436    -0.07350
C2111       C  0.02430088  0.58918472  0.13930994     0.13510
C2112       C  0.03276424  0.62047538  0.12742226    -0.20840
C2113       C  0.05833338  0.63889623  0.14181113    -0.07360
C2114       C  0.07646130  0.62490458  0.16872976     0.13500
C2115       C  0.10407605  0.64274618  0.18647569    -0.24190
H2116       H  0.08119731  0.58311432  0.20167197     0.14790
H2117       H  0.01868420  0.63071961  0.10706505     0.14820
C2118       C  0.99370197  0.57331839  0.12602310    -0.24140
H2119       H  0.12659037  0.62708135  0.18658000     0.05030
H2120       H  0.09679662  0.64764402  0.21286969     0.08260
H2121       H  0.11052992  0.66647228  0.17445654     0.08260
H2122       H  0.97594730  0.57152050  0.14709840     0.08240
H2123       H  0.99939820  0.54852857  0.11565566     0.08240
H2124       H  0.98223913  0.58825970  0.10586208     0.05020
C2125       C  0.90082907  0.30702880  0.12629419    -0.20790
C2126       C  0.87572165  0.28655303  0.13884812    -0.07350
C2127       C  0.85478507  0.29914355  0.16446116     0.13510
C2128       C  0.86093995  0.33064505  0.17799384    -0.20840
C2129       C  0.88576798  0.35115394  0.16502096    -0.07360
C2130       C  0.90444114  0.33987598  0.13729943     0.13500
C2131       C  0.92782019  0.36244749  0.11900464    -0.24190
H2132       H  0.91730624  0.29745713  0.10729510     0.14790
H2133       H  0.84670339  0.33897983  0.19945357     0.14820
C2134       C  0.82713364  0.27917631  0.17954695    -0.24140
H2135       H  0.94146121  0.34934272  0.09879807     0.05030
H2136       H  0.94598843  0.37346153  0.13645739     0.08260
H2137       H  0.91347599  0.38272535  0.10734022     0.08260
H2138       H  0.83191583  0.27549525  0.20668931     0.08240
H2139       H  0.82439066  0.25454242  0.16771858     0.08240
H2140       H  0.80342917  0.29265982  0.17662204     0.05020
C2141       C  0.04703101  0.72324880  0.85801518    -0.20790
C2142       C  0.03814634  0.68961609  0.86161495    -0.07350
C2143       C  0.00653762  0.68032089  0.84820480     0.13510
C2144       C  0.98848321  0.70240587  0.82887356    -0.20840
C2145       C  0.99418531  0.73631446  0.83011107    -0.07360
C2146       C  0.02419513  0.74707379  0.84545469     0.13500
C2147       C  0.03206556  0.78289416  0.85108761    -0.24190
H2148       H  0.07079757  0.73154684  0.86715179     0.14790
H2149       H  0.96629801  0.69358702  0.81641964     0.14820
C2150       C  0.98806629  0.64919110  0.85716332    -0.24140
H2151       H  0.03802434  0.78704896  0.87794937     0.05030
H2152       H  0.01091872  0.79914878  0.84513154     0.08260
H2153       H  0.05376036  0.79001612  0.83566927     0.08260
H2154       H  0.98863518  0.64583752  0.88462193     0.08240
H2155       H  0.99735854  0.62768035  0.84291039     0.08240
H2156       H  0.96136282  0.65071993  0.85077550     0.05020
C2157       C  0.82968441  0.74445922  0.96066203    -0.20790
C2158       C  0.79525617  0.74628080  0.96554873    -0.07350
C2159       C  0.77502031  0.72681007  0.94406508     0.13510
C2160       C  0.78979994  0.70741212  0.91879709    -0.20840
C2161       C  0.82417012  0.70184811  0.91708870    -0.07360
C2162       C  0.84395826  0.71963862  0.94043838     0.13500
C2163       C  0.87795543  0.70883409  0.95061410    -0.24190
H2164       H  0.84551017  0.75763523  0.97813796     0.14790
H2165       H  0.77354925  0.69361925  0.90285440     0.14820
C2166       C  0.73863952  0.72135800  0.95049424    -0.24140
H2167       H  0.87935975  0.70673245  0.97832652     0.05030
H2168       H  0.89631951  0.72763210  0.94298786     0.08260
H2169       H  0.88392814  0.68399415  0.94086299     0.08260
H2170       H  0.72389222  0.74139455  0.93914328     0.08240
H2171       H  0.73356922  0.71926680  0.97771824     0.08240
H2172       H  0.72987324  0.69797132  0.93891406     0.05020
C2173       C  0.91123439  0.70831361  0.88003725    -0.20790
C2174       C  0.88134649  0.70264573  0.86320834    -0.07350
C2175       C  0.87618603  0.72073906  0.83331137     0.13510
C2176       C  0.90308921  0.73726430  0.81810873    -0.20840
C2177       C  0.93213925  0.74487931  0.83635141    -0.07360
C2178       C  0.93312750  0.73324449  0.86999830     0.13500
C2179       C  0.95815589  0.74498592  0.89533718    -0.24190
H2180       H  0.91821468  0.69323798  0.90104875     0.14790
H2181       H  0.90070274  0.74368801  0.79203420     0.14820
C2182       C  0.84268365  0.72456545  0.81773656    -0.24140
H2183       H  0.97535407  0.72463719  0.90172327     0.05030
H2184       H  0.94523126  0.75303132  0.91850348     0.08260
H2185       H  0.97219446  0.76665645  0.88631852     0.08260
H2186       H  0.82290186  0.71507119  0.83434549     0.08240
H2187       H  0.84205070  0.71261480  0.79267489     0.08240
H2188       H  0.83729793  0.75111383  0.81443455     0.05020
C2189       C  0.82905084  0.36391017  0.68045093    -0.20790
C2190       C  0.84663494  0.38431016  0.65842044    -0.07350
C2191       C  0.83188331  0.39388668  0.62774304     0.13510
C2192       C  0.79988388  0.38304576  0.62043849    -0.20840
C2193       C  0.78271390  0.36192412  0.64207969    -0.07360
C2194       C  0.79745924  0.35239349  0.67274560     0.13500
C2195       C  0.78082414  0.33098867  0.69856282    -0.24190
H2196       H  0.83995341  0.35680250  0.70418501     0.14790
H2197       H  0.78836844  0.39050829  0.59717666     0.14820
C2198       C  0.84949762  0.41472126  0.60205190    -0.24140
H2199       H  0.79740313  0.31058570  0.70609312     0.05030
H2200       H  0.75726502  0.32026772  0.68953446     0.08260
H2201       H  0.77593028  0.34584538  0.72148273     0.08260
H2202       H  0.87303997  0.40266355  0.59461088     0.08240
H2203       H  0.85441697  0.43969191  0.61233973     0.08240
H2204       H  0.83450771  0.41795734  0.57896024     0.05020
C2205       C  0.09447745  0.55744404  0.66963527    -0.20790
C2206       C  0.07595735  0.53557539  0.64976733    -0.07350
C2207       C  0.08935561  0.52432994  0.61896865     0.13510
C2208       C  0.12135916  0.53391768  0.61001336    -0.20840
C2209       C  0.13993218  0.55566558  0.62985570    -0.07360
C2210       C  0.12570860  0.56847958  0.65967919     0.13500
C2211       C  0.14148681  0.59478817  0.68108883    -0.24190
H2212       H  0.08424758  0.56678209  0.69294586     0.14790
H2213       H  0.13154302  0.52477023  0.58683378     0.14820
C2214       C  0.07012921  0.50321601  0.59460269    -0.24140
H2215       H  0.14810706  0.58441807  0.70592573     0.05030
H2216       H  0.12370556  0.61533085  0.68496493     0.08260
H2217       H  0.16358272  0.60575246  0.66936805     0.08260
H2218       H  0.04681083  0.51588935  0.58762668     0.08240
H2219       H  0.06454977  0.47891039  0.60579250     0.08240
H2220       H  0.08416492  0.49849784  0.57112316     0.05020
C2221       C  0.09466470  0.40843724  0.63873780    -0.20790
C2222       C  0.07694472  0.38600230  0.65857191    -0.07350
C2223       C  0.09248928  0.35651002  0.66912784     0.13510
C2224       C  0.12483352  0.35010802  0.65864753    -0.20840
C2225       C  0.14165049  0.37167921  0.63706580    -0.07360
C2226       C  0.12671404  0.40171166  0.62776793     0.13500
C2227       C  0.14320760  0.42675636  0.60555860    -0.24190
H2228       H  0.08334504  0.43142776  0.63130746     0.14790
H2229       H  0.13696066  0.32752517  0.66631470     0.14820
C2230       C  0.07529831  0.33110368  0.69046462    -0.24140
H2231       H  0.12768542  0.43111495  0.58304444     0.05030
H2232       H  0.16789595  0.41892638  0.59678041     0.08260
H2233       H  0.14594352  0.45033948  0.61955200     0.08260
H2234       H  0.05226680  0.32274772  0.67789682     0.08240
H2235       H  0.06952327  0.34165246  0.71550889     0.08240
H2236       H  0.09098503  0.30899109  0.69456071     0.05020
C2237       C  0.82390532  0.50865410  0.65202230    -0.20790
C2238       C  0.84413249  0.53373853  0.66518262    -0.07350
C2239       C  0.83102228  0.56580602  0.66916602     0.13510
C2240       C  0.79873692  0.57215495  0.65820751    -0.20840
C2241       C  0.77947883  0.54772378  0.64240554    -0.07360
C2242       C  0.79182422  0.51507975  0.64060920     0.13500
C2243       C  0.77252245  0.48642512  0.62625770    -0.24190
H2244       H  0.83341038  0.48372811  0.65003342     0.14790
H2245       H  0.78860863  0.59669758  0.66122400     0.14820
C2246       C  0.85111607  0.59380609  0.68352069    -0.24140
H2247       H  0.76774905  0.46807927  0.64629662     0.05030
H2248       H  0.78711520  0.47425012  0.60612673     0.08260
H2249       H  0.74856639  0.49366763  0.61523580     0.08260
H2250       H  0.87396889  0.59722765  0.66849855     0.08240
H2251       H  0.85762277  0.58850970  0.70998954     0.08240
H2252       H  0.83725484  0.61745829  0.68317734     0.05020
C2253       C  0.04246935  0.57166160  0.86044009    -0.20790
C2254       C  0.05163597  0.56886228  0.82663849    -0.07350
C2255       C  0.06637576  0.59626290  0.81049527     0.13510
C2256       C  0.06820846  0.62649564  0.82736951    -0.20840
C2257       C  0.05799068  0.62988226  0.86073762    -0.07360
C2258       C  0.04495321  0.60180633  0.87765160     0.13500
C2259       C  0.02955409  0.60342583  0.91206253    -0.24190
H2260       H  0.03048812  0.55105619  0.87273222     0.14790
H2261       H  0.07721459  0.64800161  0.81413853     0.14820
C2262       C  0.08021355  0.59410504  0.77536489    -0.24140
H2263       H  0.00313605  0.59622018  0.91046992     0.05030
H2264       H  0.03076870  0.62847948  0.92321443     0.08260
H2265       H  0.04181377  0.58558315  0.92897775     0.08260
H2266       H  0.06015709  0.59196501  0.75657991     0.08240
H2267       H  0.09707104  0.57258144  0.77330977     0.08240
H2268       H  0.09466967  0.61648932  0.76884573     0.05020
C2269       C  0.86954329  0.59514005  0.81724862    -0.20790
C2270       C  0.89307450  0.57676057  0.83473975    -0.07350
C2271       C  0.90665087  0.59012530  0.86448029     0.13510
C2272       C  0.89613879  0.62158122  0.87570204    -0.20840
C2273       C  0.87241406  0.64012674  0.85792034    -0.07360
C2274       C  0.85904357  0.62619622  0.82814817     0.13500
C2275       C  0.83431610  0.64295685  0.80611037    -0.24190
H2276       H  0.85969358  0.58538350  0.79390387     0.14790
H2277       H  0.90657258  0.63185080  0.89847596     0.14820
C2278       C  0.93315155  0.57212465  0.88348955    -0.24140
H2279       H  0.81376016  0.62579009  0.80008557     0.05030
H2280       H  0.84632488  0.65049308  0.78230240     0.08260
H2281       H  0.82340571  0.66438836  0.81825867     0.08260
H2282       H  0.95505297  0.56829312  0.86712835     0.08240
H2283       H  0.92359063  0.54786930  0.89193109     0.08240
H2284       H  0.94119402  0.58619437  0.90600014     0.05020
C2285       C  0.06791169  0.32794621  0.81411042    -0.20790
C2286       C  0.04379109  0.34841828  0.82846147    -0.07350
C2287       C  0.02604021  0.33700776  0.85654309     0.13510
C2288       C  0.03056963  0.30442966  0.86758422    -0.20840
C2289       C  0.05624528  0.28470869  0.85484429    -0.07360
C2290       C  0.07574174  0.29717419  0.82810325     0.13500
C2291       C  0.10552755  0.27950521  0.81429444    -0.24190
H2292       H  0.08132762  0.33642225  0.79222137     0.14790
H2293       H  0.01668486  0.29569315  0.88900124     0.14820
C2294       C  0.00330196  0.35959253  0.87556654    -0.24140
H2295       H  0.10103307  0.27265093  0.78770515     0.05030
H2296       H  0.11185355  0.25700049  0.82849358     0.08260
H2297       H  0.12729938  0.29614787  0.81546736     0.08260
H2298       H  0.98450091  0.36970816  0.85837433     0.08240
H2299       H  0.01779114  0.38041215  0.88616735     0.08240
H2300       H  0.99083463  0.34686340  0.89663714     0.05020
C2301       C  0.80276638  0.70452214  0.02178288    -0.20790
C2302       C  0.80023014  0.73818610  0.02852002    -0.07350
C2303       C  0.81643752  0.74951202  0.05831016     0.13510
C2304       C  0.83106489  0.72596001  0.08070124    -0.20840
C2305       C  0.83865718  0.69333130  0.06989109    -0.07360
C2306       C  0.82642787  0.68503563  0.03721421     0.13500
C2307       C  0.84052632  0.65854217  0.01493624    -0.24190
H2308       H  0.78998867  0.69414016  0.00035087     0.14790
H2309       H  0.83754676  0.73378780  0.10578512     0.14820
C2310       C  0.81997001  0.78543783  0.06677132    -0.24140
H2311       H  0.83602654  0.66401946  0.98807068     0.05030
H2312       H  0.82807300  0.63464202  0.01898999     0.08260
H2313       H  0.86772430  0.65822908  0.01729604     0.08260
H2314       H  0.80495686  0.79146574  0.08927992     0.08240
H2315       H  0.81270153  0.80145846  0.04561273     0.08240
H2316       H  0.84632223  0.79098068  0.07218693     0.05020
C2317       C  0.89862976  0.61004006  0.12763156    -0.20790
C2318       C  0.87402669  0.63201857  0.13877105    -0.07350
C2319       C  0.84973115  0.62025935  0.16166502     0.13510
C2320       C  0.85290029  0.58834663  0.17492847    -0.20840
C2321       C  0.87722957  0.56655887  0.16315568    -0.07360
C2322       C  0.89792838  0.57659821  0.13671496     0.13500
C2323       C  0.91786262  0.55165100  0.11713773    -0.24190
H2324       H  0.91709693  0.61862039  0.11007636     0.14790
H2325       H  0.83696571  0.58077852  0.19536931     0.14820
C2326       C  0.82165609  0.64140597  0.17433200    -0.24140
H2327       H  0.93244609  0.56317540  0.09689400     0.05030
H2328       H  0.90079815  0.53352495  0.10540283     0.08260
H2329       H  0.93537505  0.53818087  0.13329863     0.08260
H2330       H  0.79773439  0.62944529  0.16819173     0.08240
H2331       H  0.82185998  0.66650559  0.16339001     0.08240
H2332       H  0.82311720  0.64388312  0.20201920     0.05020
C2333       C  0.85604915  0.30471331  0.84513895    -0.20790
C2334       C  0.87933078  0.29212208  0.86806111    -0.07350
C2335       C  0.90869633  0.31003597  0.87402358     0.13510
C2336       C  0.91212804  0.34152591  0.86008613    -0.20840
C2337       C  0.88867138  0.35442553  0.83789560    -0.07360
C2338       C  0.86033068  0.33565804  0.83013260     0.13500
C2339       C  0.83454123  0.34835299  0.80618647    -0.24190
H2340       H  0.83435522  0.29015626  0.83916741     0.14790
H2341       H  0.93406215  0.35552709  0.86533900     0.14820
C2342       C  0.93715601  0.29637928  0.89408787    -0.24140
H2343       H  0.81339561  0.33101166  0.80381008     0.05030
H2344       H  0.84541300  0.35174084  0.78088419     0.08260
H2345       H  0.82486960  0.37234811  0.81544304     0.08260
H2346       H  0.95868701  0.29305620  0.87721244     0.08240
H2347       H  0.93168289  0.27228090  0.90578812     0.08240
H2348       H  0.94400919  0.31374886  0.91447837     0.05020
C2349       C  0.64135770  0.35758133  0.13362601    -0.20790
C2350       C  0.63226885  0.38874775  0.12148993    -0.07350
C2351       C  0.61636628  0.41126012  0.14360382     0.13510
C2352       C  0.60733852  0.40095395  0.17571356    -0.20840
C2353       C  0.61265522  0.36859378  0.18606766    -0.07360
C2354       C  0.63206407  0.34733306  0.16585197     0.13500
C2355       C  0.64357004  0.31405370  0.17762152    -0.24190
H2356       H  0.65505509  0.34074709  0.11765199     0.14790
H2357       H  0.59389704  0.41760789  0.19213083     0.14820
C2358       C  0.60840750  0.44618910  0.13408481    -0.24140
H2359       H  0.67100970  0.31346548  0.17769788     0.05030
H2360       H  0.63447011  0.29454564  0.16034343     0.08260
H2361       H  0.63502042  0.30843920  0.20333004     0.08260
H2362       H  0.58928674  0.44650332  0.11415241     0.08240
H2363       H  0.63118522  0.45897753  0.12565258     0.08240
H2364       H  0.59842726  0.46027104  0.15572293     0.05020
C2365       C  0.59188769  0.52568702  0.13279327    -0.20790
C2366       C  0.62032672  0.54110435  0.12002357    -0.07350
C2367       C  0.63603052  0.56583752  0.13944195     0.13510
C2368       C  0.62321306  0.57368128  0.17098043    -0.20840
C2369       C  0.59552549  0.55738418  0.18427322    -0.07360
C2370       C  0.58027182  0.53232727  0.16520192     0.13500
C2371       C  0.55293664  0.51138083  0.17917431    -0.24190
H2372       H  0.57928278  0.50723960  0.11784444     0.14790
H2373       H  0.63525817  0.59256654  0.18589222     0.14820
C2374       C  0.66643654  0.58399075  0.12786559    -0.24140
H2375       H  0.54403859  0.49284416  0.16068658     0.05030
H2376       H  0.53167132  0.52683449  0.18619676     0.08260
H2377       H  0.56213665  0.49778008  0.20133313     0.08260
H2378       H  0.66120228  0.59711589  0.10407534     0.08240
H2379       H  0.68703228  0.56624342  0.12442684     0.08240
H2380       H  0.67475343  0.60274865  0.14641010     0.05020
C2381       C  0.58884854  0.53337618  0.88531783    -0.20790
C2382       C  0.62147582  0.54209173  0.89304849    -0.07350
C2383       C  0.64237763  0.55480661  0.86773967     0.13510
C2384       C  0.63020202  0.55706152  0.83494990    -0.20840
C2385       C  0.59788931  0.54699301  0.82714502    -0.07360
C2386       C  0.57689320  0.53503212  0.85276190     0.13500
C2387       C  0.54249554  0.52205129  0.84660872    -0.24190
H2388       H  0.57273854  0.52370951  0.90469038     0.14790
H2389       H  0.64584377  0.56664723  0.81517244     0.14820
C2390       C  0.67757735  0.56500896  0.87456201    -0.24140
H2391       H  0.54108938  0.49581764  0.85440188     0.05030
H2392       H  0.53512297  0.52331888  0.81996585     0.08260
H2393       H  0.52456253  0.53621630  0.86198952     0.08260
H2394       H  0.69197449  0.54362111  0.88390146     0.08240
H2395       H  0.67801587  0.58524307  0.89339230     0.08240
H2396       H  0.69003919  0.57417172  0.85158443     0.05020
C2397       C  0.58827397  0.39935023  0.87709887    -0.20790
C2398       C  0.62245741  0.40033853  0.88140366    -0.07350
C2399       C  0.64324454  0.39619454  0.85320824     0.13510
C2400       C  0.62910440  0.38774545  0.82201871    -0.20840
C2401       C  0.59488302  0.38220776  0.81889589    -0.07360
C2402       C  0.57422072  0.39100216  0.84629014     0.13500
C2403       C  0.53737288  0.39315776  0.84422542    -0.24190
H2404       H  0.57218810  0.40459834  0.89823819     0.14790
H2405       H  0.64507702  0.38299887  0.80073988     0.14820
C2406       C  0.68015235  0.40004310  0.85595366    -0.24140
H2407       H  0.52604043  0.37604072  0.86259724     0.05030
H2408       H  0.52849653  0.38757593  0.81888586     0.08260
H2409       H  0.52934541  0.41866913  0.85039730     0.08260
H2410       H  0.69031477  0.38110789  0.87309054     0.08240
H2411       H  0.68618843  0.42500735  0.86573176     0.08240
H2412       H  0.69247444  0.39697690  0.83124575     0.05020
C2413       C  0.83213965  0.33804808  0.05602423    -0.20790
C2414       C  0.80102515  0.34448157  0.07031695    -0.07350
C2415       C  0.78745949  0.32095546  0.09256292     0.13510
C2416       C  0.80452742  0.29148513  0.09885968    -0.20840
C2417       C  0.83515004  0.28420006  0.08388912    -0.07360
C2418       C  0.84955392  0.30858917  0.06288314     0.13500
C2419       C  0.88347951  0.30501796  0.04798221    -0.24190
H2420       H  0.84278202  0.35587037  0.03893206     0.14790
H2421       H  0.79400009  0.27432854  0.11649082     0.14820
C2422       C  0.75522023  0.32701455  0.11065600    -0.24140
H2423       H  0.88182246  0.30372931  0.02040557     0.05030
H2424       H  0.89639407  0.28277403  0.05690305     0.08260
H2425       H  0.89880229  0.32671642  0.05490572     0.08260
H2426       H  0.73434600  0.32728940  0.09266216     0.08240
H2427       H  0.75636380  0.35090991  0.12430599     0.08240
H2428       H  0.74985723  0.30742357  0.12928484     0.05020
C2429       C  0.78012043  0.59559003  0.89991236    -0.20790
C2430       C  0.79603571  0.57654389  0.92428525    -0.07350
C2431       C  0.82550243  0.58857124  0.93885922     0.13510
C2432       C  0.83742718  0.61991702  0.92964364    -0.20840
C2433       C  0.82110967  0.63942897  0.90567448    -0.07360
C2434       C  0.79238266  0.62641286  0.88994299     0.13500
C2435       C  0.77327584  0.64400232  0.86303009    -0.24190
H2436       H  0.75723968  0.58658960  0.88900706     0.14790
H2437       H  0.85971007  0.62931728  0.94129317     0.14820
C2438       C  0.84368759  0.56913004  0.96508596    -0.24140
H2439       H  0.77169612  0.62815677  0.84036492     0.05030
H2440       H  0.78446008  0.66780512  0.85587751     0.08260
H2441       H  0.74771072  0.64881210  0.87195712     0.08260
H2442       H  0.85106675  0.54481459  0.95462882     0.08240
H2443       H  0.82762077  0.56545299  0.98734679     0.08240
H2444       H  0.86654447  0.58194467  0.97324764     0.05020
C2445       C  0.83242556  0.57519966  0.06739760    -0.20790
C2446       C  0.80025844  0.57197801  0.08001296    -0.07350
C2447       C  0.78535952  0.59951454  0.09620338     0.13510
C2448       C  0.80216129  0.62964585  0.09757392    -0.20840
C2449       C  0.83430544  0.63298404  0.08527522    -0.07360
C2450       C  0.84970869  0.60516065  0.06978134     0.13500
C2451       C  0.88302064  0.60680456  0.05289974    -0.24190
H2452       H  0.84367477  0.55471252  0.05408746     0.14790
H2453       H  0.79044990  0.65080320  0.10929444     0.14820
C2454       C  0.75180572  0.59762071  0.11260986    -0.24140
H2455       H  0.89896045  0.58663707  0.06165146     0.05030
H2456       H  0.89576776  0.63063468  0.05733069     0.08260
H2457       H  0.88014677  0.60294303  0.02557809     0.08260
H2458       H  0.75068912  0.57587163  0.12940879     0.08240
H2459       H  0.73209884  0.59619782  0.09337765     0.08240
H2460       H  0.74651158  0.61984828  0.12807817     0.05020
C2461       C  0.82768746  0.35275463  0.92873274    -0.20790
C2462       C  0.79553402  0.35550543  0.91615545    -0.07350
C2463       C  0.78125760  0.32810602  0.89932129     0.13510
C2464       C  0.79830634  0.29794939  0.89834541    -0.20840
C2465       C  0.82966218  0.29447117  0.91293830    -0.07360
C2466       C  0.84480027  0.32275220  0.92777257     0.13500
C2467       C  0.87772044  0.32198012  0.94523463    -0.24190
H2468       H  0.83872599  0.37347247  0.94187149     0.14790
H2469       H  0.78724807  0.27684633  0.88589475     0.14820
C2470       C  0.74826465  0.33049043  0.88186608    -0.24140
H2471       H  0.87443376  0.33002394  0.97158582     0.05030
H2472       H  0.89470331  0.33991301  0.93332499     0.08260
H2473       H  0.88904069  0.29709704  0.94516299     0.08260
H2474       H  0.74847521  0.35165636  0.86427805     0.08240
H2475       H  0.72795868  0.33353875  0.90025665     0.08240
H2476       H  0.74274597  0.30786666  0.86709523     0.05020
C2477       C  0.33924607  0.41591272  0.86802979    -0.20790
C2478       C  0.31049280  0.39953752  0.87877905    -0.07350
C2479       C  0.29413785  0.37816578  0.85603238     0.13510
C2480       C  0.30726630  0.37365272  0.82380177    -0.20840
C2481       C  0.33670030  0.38904281  0.81340772    -0.07360
C2482       C  0.35255835  0.41083467  0.83590810     0.13500
C2483       C  0.38331855  0.42922647  0.82624547    -0.24190
H2484       H  0.35173870  0.43272179  0.88498691     0.14790
H2485       H  0.29490593  0.35660524  0.80734942     0.14820
C2486       C  0.26313168  0.35949675  0.86515419    -0.24140
H2487       H  0.37783211  0.44533944  0.80471273     0.05030
H2488       H  0.40325385  0.41214531  0.81933323     0.08260
H2489       H  0.39275637  0.44477797  0.84711762     0.08260
H2490       H  0.24311248  0.37705460  0.87184088     0.08240
H2491       H  0.26819328  0.34266695  0.88643503     0.08240
H2492       H  0.25395124  0.34407028  0.84404019     0.05020
C2493       C  0.31098613  0.57710292  0.16703171    -0.20790
C2494       C  0.33017906  0.55477775  0.18535428    -0.07350
C2495       C  0.34167854  0.52568729  0.17002558     0.13510
C2496       C  0.33122557  0.51802246  0.13748566    -0.20840
C2497       C  0.30980501  0.53909083  0.11985582    -0.07360
C2498       C  0.30074674  0.56980173  0.13434333     0.13500
C2499       C  0.28087597  0.59533927  0.11577261    -0.24190
H2500       H  0.30331260  0.59993299  0.17886681     0.14790
H2501       H  0.33907069  0.49492380  0.12628121     0.14820
C2502       C  0.36478027  0.50272961  0.18824662    -0.24140
H2503       H  0.27866026  0.61866928  0.13030788     0.05030
H2504       H  0.25545711  0.58619560  0.11121166     0.08260
H2505       H  0.29314123  0.60125634  0.09161788     0.08260
H2506       H  0.35180585  0.49119129  0.20965095     0.08240
H2507       H  0.38615167  0.51581008  0.19900540     0.08240
H2508       H  0.37482718  0.48371324  0.17107486     0.05020
C2509       C  0.29685183  0.34688748  0.16377755    -0.20790
C2510       C  0.31617870  0.36884875  0.18274314    -0.07350
C2511       C  0.32654952  0.39848682  0.16788586     0.13510
C2512       C  0.31812526  0.40529157  0.13473086    -0.20840
C2513       C  0.30042900  0.38266127  0.11509786    -0.07360
C2514       C  0.29020578  0.35258888  0.12972487     0.13500
C2515       C  0.27423310  0.32559065  0.10948340    -0.24190
H2516       H  0.28772583  0.32471581  0.17542658     0.14790
H2517       H  0.32595400  0.42862428  0.12414135     0.14820
C2518       C  0.34650805  0.42386326  0.18597218    -0.24140
H2519       H  0.26927306  0.30329158  0.12477053     0.05030
H2520       H  0.29074148  0.31835977  0.08845816     0.08260
H2521       H  0.25041339  0.33419991  0.09946826     0.08260
H2522       H  0.35298591  0.41744261  0.21190446     0.08240
H2523       H  0.33125243  0.44645322  0.18679729     0.08240
H2524       H  0.36993498  0.42801130  0.17213121     0.05020
C2525       C  0.30071579  0.58195994  0.84359317    -0.20790
C2526       C  0.32091172  0.56034602  0.82531096    -0.07350
C2527       C  0.33128113  0.53045740  0.83997448     0.13510
C2528       C  0.32428649  0.52458003  0.87343062    -0.20840
C2529       C  0.30524859  0.54663147  0.89234148    -0.07360
C2530       C  0.29293796  0.57573405  0.87717547     0.13500
C2531       C  0.27194731  0.60047320  0.89578489    -0.24190
H2532       H  0.29125818  0.60387814  0.83144193     0.14790
H2533       H  0.33259762  0.50151014  0.88423211     0.14820
C2534       C  0.34732746  0.50288300  0.82078818    -0.24140
H2535       H  0.26666368  0.62256962  0.88029008     0.05030
H2536       H  0.28504782  0.60893133  0.91871555     0.08260
H2537       H  0.24780259  0.58931974  0.90253228     0.08260
H2538       H  0.37126105  0.49694472  0.83281925     0.08240
H2539       H  0.35168324  0.50854594  0.79410336     0.08240
H2540       H  0.33107513  0.48082278  0.82172990     0.05020
C2541       C  0.15317376  0.33048021  0.89732128    -0.20790
C2542       C  0.13528673  0.35679802  0.91172045    -0.07350
C2543       C  0.10141570  0.35212926  0.91915568     0.13510
C2544       C  0.08725436  0.32096183  0.91389397    -0.20840
C2545       C  0.10579880  0.29404347  0.90167431    -0.07360
C2546       C  0.13919969  0.29914671  0.89285279     0.13500
C2547       C  0.16133085  0.27192545  0.88007443    -0.24190
H2548       H  0.17914969  0.33373978  0.89143929     0.14790
H2549       H  0.06218995  0.31674340  0.92228345     0.14820
C2550       C  0.08043374  0.37869429  0.93492409    -0.24140
H2551       H  0.18174767  0.26784867  0.89819542     0.05030
H2552       H  0.17212240  0.27914735  0.85558454     0.08260
H2553       H  0.14826180  0.24819830  0.87639523     0.08260
H2554       H  0.08017163  0.40080937  0.91859945     0.08240
H2555       H  0.09020446  0.38515159  0.96011055     0.08240
H2556       H  0.05442861  0.37056338  0.93833982     0.05020
C2557       C  0.10372005  0.58522370  0.06272412    -0.20790
C2558       C  0.13081776  0.57316055  0.08091341    -0.07350
C2559       C  0.14485010  0.59357085  0.10603650     0.13510
C2560       C  0.13241762  0.62546725  0.11133239    -0.20840
C2561       C  0.10668651  0.63856345  0.09191098    -0.07360
C2562       C  0.09219826  0.61787092  0.06713965     0.13500
C2563       C  0.06519434  0.62976151  0.04429945    -0.24190
H2564       H  0.09271810  0.56980359  0.04357295     0.14790
H2565       H  0.14294510  0.64003042  0.13120280     0.14820
C2566       C  0.17285025  0.58170974  0.12792525    -0.24140
H2567       H  0.07322446  0.62720498  0.01790849     0.05030
H2568       H  0.05970680  0.65614723  0.04781727     0.08260
H2569       H  0.04237056  0.61508423  0.04835661     0.08260
H2570       H  0.19555604  0.57791778  0.11290276     0.08240
H2571       H  0.16576487  0.55821746  0.14019849     0.08240
H2572       H  0.17901916  0.59982606  0.14793464     0.05020
C2573       C  0.13019061  0.29353414  0.09810760    -0.20790
C2574       C  0.09977593  0.28462501  0.08397807    -0.07350
C2575       C  0.08451628  0.30679073  0.06133210     0.13510
C2576       C  0.10018858  0.33707067  0.05361884    -0.20840
C2577       C  0.13051064  0.34584282  0.06844130    -0.07360
C2578       C  0.14506639  0.32394267  0.09160967     0.13500
C2579       C  0.17596305  0.33291265  0.11061646    -0.24190
H2580       H  0.14134319  0.27779857  0.11657710     0.14790
H2581       H  0.08929825  0.35337939  0.03520975     0.14820
C2582       C  0.05222078  0.29827439  0.04474171    -0.24140
H2583       H  0.18256090  0.31409174  0.12964947     0.05030
H2584       H  0.17244454  0.35684434  0.12377079     0.08260
H2585       H  0.19683951  0.33468955  0.09296742     0.08260
H2586       H  0.03280651  0.29463828  0.06385632     0.08240
H2587       H  0.05491880  0.27527521  0.02989497     0.08240
H2588       H  0.04391256  0.31809580  0.02754765     0.05020
C2589       C  0.14676459  0.59307848  0.89369169    -0.20790
C2590       C  0.13629885  0.57492130  0.92157855    -0.07350
C2591       C  0.11174971  0.58806430  0.94285843     0.13510
C2592       C  0.09884372  0.61943194  0.93634534    -0.20840
C2593       C  0.10727952  0.63657982  0.90717207    -0.07360
C2594       C  0.13245119  0.62374431  0.88595638     0.13500
C2595       C  0.14609241  0.64300975  0.85667604    -0.24190
H2596       H  0.16700588  0.58370067  0.87860190     0.14790
H2597       H  0.08085202  0.63007619  0.95335903     0.14820
C2598       C  0.09946281  0.56913498  0.97275637    -0.24140
H2599       H  0.16430576  0.62826925  0.84213707     0.05030
H2600       H  0.15885930  0.66561077  0.86534640     0.08260
H2601       H  0.12641838  0.65058742  0.83933465     0.08260
H2602       H  0.12007402  0.56505375  0.99063392     0.08240
H2603       H  0.08929776  0.54502105  0.96447391     0.08240
H2604       H  0.07917280  0.58224751  0.98576172     0.05020
C2605       C  0.72689912  0.04677167  0.14062584    -0.20790
C2606       C  0.69377352  0.03606060  0.13622351    -0.07350
C2607       C  0.68602843  0.00413651  0.14954115     0.13510
C2608       C  0.70911663  0.98704985  0.16845426    -0.20840
C2609       C  0.74283780  0.99377562  0.16623514    -0.07360
C2610       C  0.75205753  0.02475917  0.15221512     0.13500
C2611       C  0.78755743  0.03476794  0.14764018    -0.24190
H2612       H  0.73382086  0.07126583  0.13258903     0.14790
H2613       H  0.70131566  0.96457288  0.18087577     0.14820
C2614       C  0.65562559  0.98435249  0.14077767    -0.24140
H2615       H  0.79190806  0.04224800  0.12129154     0.05030
H2616       H  0.80489952  0.01432545  0.15284176     0.08260
H2617       H  0.79330950  0.05598157  0.16433504     0.08260
H2618       H  0.65171245  0.98557460  0.11345021     0.08240
H2619       H  0.63396193  0.99224543  0.15569667     0.08240
H2620       H  0.65864001  0.95766254  0.14631572     0.05020
C2621       C  0.74142980  0.90440330  0.17566882    -0.20790
C2622       C  0.75168716  0.93244239  0.15730749    -0.07350
C2623       C  0.73997074  0.93472550  0.12383226     0.13510
C2624       C  0.71300201  0.91544512  0.11361765    -0.20840
C2625       C  0.70339481  0.88698320  0.13094269    -0.07360
C2626       C  0.72013817  0.88027622  0.16146760     0.13500
C2627       C  0.71577636  0.84834775  0.17995874    -0.24190
H2628       H  0.74869784  0.90132486  0.20147575     0.14790
H2629       H  0.69908232  0.92393796  0.09239547     0.14820
C2630       C  0.75324392  0.95964679  0.09930135    -0.24140
H2631       H  0.74043522  0.83735060  0.18488105     0.05030
H2632       H  0.70167842  0.82996632  0.16508653     0.08260
H2633       H  0.70322770  0.85292911  0.20429473     0.08260
H2634       H  0.77544040  0.97255002  0.10903403     0.08240
H2635       H  0.73380158  0.97797972  0.09322462     0.08240
H2636       H  0.76080544  0.94689826  0.07586565     0.05020
C2637       C  0.79335370  0.93794685  0.25404911    -0.20790
C2638       C  0.79847601  0.93466224  0.21970271    -0.07350
C2639       C  0.81645565  0.90655357  0.20857593     0.13510
C2640       C  0.82741143  0.88283428  0.23250754    -0.20840
C2641       C  0.82703766  0.88960859  0.26750878    -0.07360
C2642       C  0.81121227  0.91984002  0.27729078     0.13500
C2643       C  0.81551474  0.93706867  0.31064766    -0.24190
H2644       H  0.77845642  0.95824078  0.26316432     0.14790
H2645       H  0.83770831  0.85999635  0.22331675     0.14820
C2646       C  0.82513583  0.90113616  0.17233415    -0.24140
H2647       H  0.80745303  0.96320031  0.30970531     0.05030
H2648       H  0.84204928  0.93794698  0.31717710     0.08260
H2649       H  0.79987978  0.92597438  0.33033078     0.08260
H2650       H  0.81769602  0.92211908  0.15632308     0.08240
H2651       H  0.81290461  0.87835582  0.16302166     0.08240
H2652       H  0.85231728  0.89825939  0.16983727     0.05020
C2653       C  0.79454643  0.04400545  0.25270215    -0.20790
C2654       C  0.82865685  0.04493574  0.25982802    -0.07350
C2655       C  0.84932036  0.02218019  0.24286635     0.13510
C2656       C  0.83525534  0.99970942  0.21962887    -0.20840
C2657       C  0.80065812  0.99644454  0.21557672    -0.07360
C2658       C  0.78014023  0.01848870  0.23388891     0.13500
C2659       C  0.74365933  0.01297385  0.23949906    -0.24190
H2660       H  0.77814019  0.06042311  0.26613847     0.14790
H2661       H  0.85119266  0.98205735  0.20708785     0.14820
C2662       C  0.88550062  0.01925026  0.25119201    -0.24140
H2663       H  0.73809075  0.01428016  0.26676116     0.05030
H2664       H  0.73533391  0.98822484  0.23140972     0.08260
H2665       H  0.72920209  0.03239941  0.22654922     0.08260
H2666       H  0.88870201  0.01501315  0.27847543     0.08240
H2667       H  0.89880168  0.04191160  0.24379686     0.08240
H2668       H  0.89722397  0.99830181  0.23767011     0.05020
C2669       C  0.93324352  0.71182699  0.18167912    -0.20790
C2670       C  0.93726862  0.74266594  0.16733575    -0.07350
C2671       C  0.91961821  0.74876001  0.13720610     0.13510
C2672       C  0.90023223  0.72322245  0.12218363    -0.20840
C2673       C  0.89312054  0.69306734  0.13868176    -0.07360
C2674       C  0.90968213  0.68888592  0.17073774     0.13500
C2675       C  0.90424332  0.66133691  0.19571832    -0.24190
H2676       H  0.94956398  0.70512878  0.20204396     0.14790
H2677       H  0.89188711  0.72693695  0.09685860     0.14820
C2678       C  0.92241197  0.78121735  0.11926612    -0.24140
H2679       H  0.91765061  0.66533988  0.21971729     0.05030
H2680       H  0.91378552  0.63747105  0.18635426     0.08260
H2681       H  0.87804176  0.66057383  0.20319092     0.08260
H2682       H  0.93264857  0.77727143  0.09373119     0.08240
H2683       H  0.93853790  0.79892788  0.13283908     0.08240
H2684       H  0.89748171  0.79242690  0.11700014     0.05020
C2685       C  0.99944813  0.73829325  0.13205289    -0.20790
C2686       C  0.99905572  0.74587866  0.16651629    -0.07350
C2687       C  0.02382944  0.73059314  0.18652244     0.13510
C2688       C  0.04845067  0.71082789  0.17099585    -0.20840
C2689       C  0.04616305  0.70055036  0.13717289    -0.07360
C2690       C  0.01851480  0.71249974  0.11890271     0.13500
C2691       C  0.00424169  0.69587950  0.08827074    -0.24190
H2692       H  0.98093148  0.74890280  0.11591631     0.14790
H2693       H  0.06748995  0.70041019  0.18668038     0.14820
C2694       C  0.02434640  0.73195649  0.22417471    -0.24140
H2695       H  0.97986792  0.68494828  0.09469345     0.05030
H2696       H  0.02011415  0.67612851  0.07854127     0.08260
H2697       H  0.00033096  0.71415671  0.06796045     0.08260
H2698       H  0.02375235  0.70648801  0.23432488     0.08240
H2699       H  0.00312750  0.74510442  0.23505113     0.08240
H2700       H  0.04745948  0.74417641  0.23254447     0.05020
C2701       C  0.98716059  0.81980787  0.25223284    -0.20790
C2702       C  0.99378439  0.80611234  0.22015934    -0.07350
C2703       C  0.02659636  0.81165276  0.20772470     0.13510
C2704       C  0.05202573  0.82235207  0.23017261    -0.20840
C2705       C  0.04418201  0.83427160  0.26249216    -0.07360
C2706       C  0.01069455  0.83729766  0.27055675     0.13500
C2707       C  0.99930398  0.86160429  0.29671725    -0.24190
H2708       H  0.96291786  0.81859354  0.26319790     0.14790
H2709       H  0.07752473  0.82279791  0.22189426     0.14820
C2710       C  0.03502918  0.81059591  0.17105536    -0.24140
H2711       H  0.97722197  0.87515144  0.28774063     0.05030
H2712       H  0.01811607  0.88067414  0.30181297     0.08260
H2713       H  0.99450904  0.84884717  0.32056286     0.08260
H2714       H  0.01278491  0.80754890  0.15515462     0.08240
H2715       H  0.05318575  0.79068582  0.16593836     0.08240
H2716       H  0.04633848  0.83447462  0.16372958     0.05020
C2717       C  0.92256842  0.83293560  0.21331237    -0.20790
C2718       C  0.93059704  0.79899889  0.21507830    -0.07350
C2719       C  0.91193402  0.77975657  0.23810786     0.13510
C2720       C  0.88504496  0.79381435  0.25534859    -0.20840
C2721       C  0.88138045  0.82823301  0.25866546    -0.07360
C2722       C  0.90136751  0.84815434  0.23724223     0.13500
C2723       C  0.90497816  0.88492200  0.24156570    -0.24190
H2724       H  0.93769068  0.84856568  0.19749881     0.14790
H2725       H  0.87062565  0.77786520  0.27150453     0.14820
C2726       C  0.92302769  0.74674637  0.25096691    -0.24140
H2727       H  0.93148487  0.89112510  0.24518816     0.05030
H2728       H  0.89182914  0.89461323  0.26375936     0.08260
H2729       H  0.89599868  0.89771539  0.21876974     0.08260
H2730       H  0.94828671  0.74054699  0.24300953     0.08240
H2731       H  0.90527320  0.72732234  0.24314127     0.08240
H2732       H  0.92392171  0.74730915  0.27882016     0.05020
C2733       C  0.09109013  0.94142743  0.77486914    -0.20790
C2734       C  0.12137270  0.93073306  0.78958498    -0.07350
C2735       C  0.12859913  0.89621509  0.78318070     0.13510
C2736       C  0.10925970  0.87792725  0.75985223    -0.20840
C2737       C  0.08568015  0.89286004  0.73942796    -0.07360
C2738       C  0.07735187  0.92585195  0.74653099     0.13500
C2739       C  0.05589600  0.94588951  0.72329797    -0.24190
H2740       H  0.08107549  0.96527892  0.78158239     0.14790
H2741       H  0.11511319  0.85231108  0.75460423     0.14820
C2742       C  0.15577607  0.87653788  0.79860211    -0.24140
H2743       H  0.05327140  0.97175024  0.73207954     0.05030
H2744       H  0.03084069  0.93549745  0.72083138     0.08260
H2745       H  0.06738299  0.94661899  0.69817120     0.08260
H2746       H  0.15406770  0.87767448  0.82614621     0.08240
H2747       H  0.17932666  0.88406553  0.78728474     0.08240
H2748       H  0.15401748  0.84977631  0.79273631     0.05020
C2749       C  0.14304768  0.98721193  0.74928471    -0.20790
C2750       C  0.13699169  0.99138585  0.78322630    -0.07350
C2751       C  0.11766022  0.01918194  0.79274168     0.13510
C2752       C  0.10410529  0.04053191  0.76755497    -0.20840
C2753       C  0.10467760  0.03236242  0.73288726    -0.07360
C2754       C  0.12629428  0.00464767  0.72433974     0.13500
C2755       C  0.13233664  0.98963277  0.68993244    -0.24190
H2756       H  0.15859459  0.96642961  0.74236510     0.14790
H2757       H  0.09176566  0.06293500  0.77527336     0.14820
C2758       C  0.11018384  0.02562191  0.82905472    -0.24140
H2759       H  0.14780001  0.96698366  0.69026308     0.05030
H2760       H  0.14637204  0.00639149  0.67350477     0.08260
H2761       H  0.10900577  0.98097008  0.67915928     0.08260
H2762       H  0.13335003  0.03074980  0.84292376     0.08240
H2763       H  0.09776000  0.00379621  0.84010951     0.08240
H2764       H  0.09368297  0.04729257  0.83225594     0.05020
C2765       C  0.19070655  0.99035682  0.87563955    -0.20790
C2766       C  0.18667875  0.99049693  0.84066625    -0.07350
C2767       C  0.20362633  0.01624392  0.82321330     0.13510
C2768       C  0.22187092  0.04012625  0.84162279    -0.20840
C2769       C  0.23106708  0.03502222  0.87538514    -0.07360
C2770       C  0.21710206  0.00672981  0.89103733     0.13500
C2771       C  0.23175736  0.98858073  0.92041026    -0.24190
H2772       H  0.17703560  0.97309335  0.89064206     0.14790
H2773       H  0.23308970  0.06029883  0.82804234     0.14820
C2774       C  0.20701252  0.01801985  0.78575924    -0.24140
H2775       H  0.21283149  0.98331327  0.93981178     0.05030
H2776       H  0.25224801  0.00203201  0.93192647     0.08260
H2777       H  0.24091490  0.96414730  0.91184878     0.08260
H2778       H  0.19163617  0.03845268  0.77583970     0.08240
H2779       H  0.20061628  0.99458638  0.77349292     0.08240
H2780       H  0.23322701  0.02270093  0.77892144     0.05020
C2781       C  0.18290510  0.91439705  0.86952983    -0.20790
C2782       C  0.18889170  0.92849570  0.83753811    -0.07350
C2783       C  0.21734148  0.91737763  0.82029963     0.13510
C2784       C  0.23532660  0.89032347  0.83251793    -0.20840
C2785       C  0.23161124  0.87800938  0.86549355    -0.07360
C2786       C  0.20572358  0.89231975  0.88490499     0.13500
C2787       C  0.20276607  0.88763522  0.92217854    -0.24190
H2788       H  0.16160549  0.92248722  0.88378381     0.14790
H2789       H  0.25444357  0.88044169  0.81649421     0.14820
C2790       C  0.22855968  0.93315790  0.78812249    -0.24140
H2791       H  0.20373222  0.91208870  0.93478187     0.05030
H2792       H  0.22311906  0.87278598  0.93272130     0.08260
H2793       H  0.17876713  0.87583443  0.92829407     0.08260
H2794       H  0.20784993  0.93443164  0.76993324     0.08240
H2795       H  0.24904298  0.91924540  0.77607663     0.08240
H2796       H  0.23813413  0.95813147  0.79378347     0.05020
C2797       C  0.00680219  0.09555522  0.78906754    -0.20790
C2798       C  0.98900023  0.12412206  0.77928566    -0.07350
C2799       C  0.99159205  0.13308684  0.74526204     0.13510
C2800       C  0.01688359  0.11972922  0.72557148    -0.20840
C2801       C  0.03600969  0.09131399  0.73437756    -0.07360
C2802       C  0.02634110  0.07696355  0.76559669     0.13500
C2803       C  0.02921072  0.04062276  0.77209613    -0.24190
H2804       H  0.00168333  0.08514628  0.81350583     0.14790
H2805       H  0.01935125  0.13160983  0.70170661     0.14820
C2806       C  0.96771523  0.15681021  0.72872288    -0.24140
H2807       H  0.00404596  0.03011900  0.77527688     0.05030
H2808       H  0.04311302  0.03607797  0.79557579     0.08260
H2809       H  0.04054592  0.02731154  0.75077215     0.08260
H2810       H  0.96555522  0.18006638  0.74302190     0.08240
H2811       H  0.94312074  0.14506942  0.72647444     0.08240
H2812       H  0.97533339  0.16340614  0.70284804     0.05020
C2813       C  0.92707191  0.08979750  0.78483202    -0.20790
C2814       C  0.92752184  0.12452230  0.79042737    -0.07350
C2815       C  0.89985204  0.14204711  0.77656571     0.13510
C2816       C  0.87645867  0.12549897  0.75660275    -0.20840
C2817       C  0.88118013  0.09338407  0.74530696    -0.07360
C2818       C  0.90653577  0.07474009  0.76043766     0.13500
C2819       C  0.91452696  0.03996299  0.74985813    -0.24190
H2820       H  0.94596696  0.07465865  0.79615815     0.14790
H2821       H  0.85576219  0.13902396  0.74653745     0.14820
C2822       C  0.89477896  0.17837253  0.77854199    -0.24140
H2823       H  0.91098083  0.02308206  0.77141792     0.05030
H2824       H  0.94070320  0.03865899  0.74153438     0.08260
H2825       H  0.89909395  0.03117873  0.72877443     0.08260
H2826       H  0.91747797  0.19081595  0.77044331     0.08240
H2827       H  0.88590813  0.18461329  0.80395014     0.08240
H2828       H  0.87521492  0.18746188  0.76133708     0.05020
C2829       C  0.90792684  0.23671832  0.83925268    -0.20790
C2830       C  0.89324776  0.23086469  0.87104734    -0.07350
C2831       C  0.90507785  0.20207618  0.88779027     0.13510
C2832       C  0.92411201  0.17811401  0.86965246    -0.20840
C2833       C  0.93977645  0.18595862  0.83883757    -0.07360
C2834       C  0.93425414  0.21822267  0.82660565     0.13500
C2835       C  0.95464225  0.23429239  0.79947803    -0.24190
H2836       H  0.90105716  0.25780190  0.82432116     0.14790
H2837       H  0.93070752  0.15522170  0.88187796     0.14820
C2838       C  0.90369564  0.19827411  0.92524599    -0.24140
H2839       H  0.96780977  0.25594122  0.81019239     0.05030
H2840       H  0.93851952  0.24304558  0.77880558     0.08260
H2841       H  0.97303187  0.21759236  0.78852560     0.08260
H2842       H  0.89303374  0.22011423  0.93792162     0.08240
H2843       H  0.92924998  0.19566679  0.93505992     0.08240
H2844       H  0.88972665  0.17574425  0.93201271     0.05020
C2845       C  0.05111874  0.21258277  0.83321503    -0.20790
C2846       C  0.04863038  0.22348885  0.86645089    -0.07350
C2847       C  0.02451917  0.20829290  0.88674578     0.13510
C2848       C  0.00313716  0.18418230  0.87268068    -0.20840
C2849       C  0.00172098  0.17707777  0.83769223    -0.07360
C2850       C  0.02850596  0.19040855  0.81832884     0.13500
C2851       C  0.03513674  0.18281621  0.78211478    -0.24190
H2852       H  0.07012112  0.22321811  0.81772920     0.14790
H2853       H  0.98515025  0.17300109  0.88907634     0.14820
C2854       C  0.01928530  0.21910235  0.92249989    -0.24140
H2855       H  0.04288515  0.15679080  0.77966552     0.05030
H2856       H  0.05603349  0.19730698  0.77168284     0.08260
H2857       H  0.01383862  0.18929684  0.76653483     0.08260
H2858       H  0.01399635  0.24593501  0.92350114     0.08240
H2859       H  0.04157050  0.21380082  0.93753569     0.08240
H2860       H  0.99818920  0.20600136  0.93430597     0.05020
C2861       C  0.69088977  0.13112084  0.06494821    -0.20790
C2862       C  0.69684035  0.09912389  0.07795943    -0.07350
C2863       C  0.72627328  0.08364752  0.06591232     0.13510
C2864       C  0.75023226  0.10277126  0.04812259    -0.20840
C2865       C  0.74077978  0.13213598  0.03139666    -0.07360
C2866       C  0.70865402  0.14407514  0.03820974     0.13500
C2867       C  0.69106132  0.16974639  0.01738127    -0.24190
H2868       H  0.66939140  0.14521180  0.07203699     0.14790
H2869       H  0.77319977  0.09111852  0.04059542     0.14820
C2870       C  0.73024763  0.04677296  0.06425163    -0.24140
H2871       H  0.68284507  0.19053235  0.03358347     0.05030
H2872       H  0.66890883  0.15845153  0.00554589     0.08260
H2873       H  0.70654674  0.18006595  0.99733452     0.08260
H2874       H  0.70797667  0.03350302  0.07289340     0.08240
H2875       H  0.75231673  0.03893617  0.07852038     0.08240
H2876       H  0.73397686  0.03904212  0.03779836     0.05020
C2877       C  0.73058292  0.09419955  0.97273305    -0.20790
C2878       C  0.74209293  0.12680409  0.96803590    -0.07350
C2879       C  0.73197702  0.14175143  0.93705858     0.13510
C2880       C  0.71468465  0.12235510  0.91286396    -0.20840
C2881       C  0.69803849  0.09321884  0.92234289    -0.07360
C2882       C  0.70311568  0.08242690  0.95541578     0.13500
C2883       C  0.67806060  0.06252533  0.97491819    -0.24190
H2884       H  0.73871196  0.07962452  0.99346774     0.14790
H2885       H  0.70934780  0.13287392  0.88852747     0.14820
C2886       C  0.73275863  0.17816433  0.93004057    -0.24140
H2887       H  0.68605234  0.05861507  0.00124315     0.05030
H2888       H  0.67354059  0.03802768  0.96407606     0.08260
H2889       H  0.65445497  0.07635639  0.97614226     0.08260
H2890       H  0.75199301  0.18379656  0.91107810     0.08240
H2891       H  0.73604374  0.19315096  0.95283288     0.08240
H2892       H  0.70849086  0.18609748  0.91979979     0.05020
C2893       C  0.83650713  0.18398577  0.02799521    -0.20790
C2894       C  0.80213896  0.17821192  0.03207073    -0.07350
C2895       C  0.78722339  0.19430035  0.06033448     0.13510
C2896       C  0.80679705  0.21210061  0.08339493    -0.20840
C2897       C  0.83885758  0.22252129  0.07547588    -0.07360
C2898       C  0.85333623  0.20895923  0.04610979     0.13500
C2899       C  0.88644826  0.22025571  0.03337086    -0.24190
H2900       H  0.84888528  0.17297327  0.00659471     0.14790
H2901       H  0.79522882  0.22171607  0.10581819     0.14820
C2902       C  0.75102222  0.20090293  0.06330200    -0.24140
H2903       H  0.89780045  0.20150436  0.01656806     0.05030
H2904       H  0.90386907  0.22472534  0.05439896     0.08260
H2905       H  0.88310361  0.24295577  0.01844505     0.08260
H2906       H  0.73934805  0.18171364  0.07900721     0.08240
H2907       H  0.74028855  0.20367025  0.03812610     0.08240
H2908       H  0.74611755  0.22492789  0.07590966     0.05020
C2909       C  0.79200651  0.22033544  0.97625490    -0.20790
C2910       C  0.79454915  0.18654018  0.97030217    -0.07350
C2911       C  0.81315685  0.17630719  0.94182720     0.13510
C2912       C  0.82779067  0.20063887  0.92054701    -0.20840
C2913       C  0.83016175  0.23417361  0.93064524    -0.07360
C2914       C  0.81301791  0.24279353  0.96095830     0.13500
C2915       C  0.81937938  0.27358829  0.98136125    -0.24190
H2916       H  0.77730098  0.22870036  0.99738539     0.14790
H2917       H  0.83896058  0.19291108  0.89717893     0.14820
C2918       C  0.81828390  0.14050886  0.93349379    -0.24140
H2919       H  0.81229590  0.27045329  0.00810673     0.05030
H2920       H  0.80458792  0.29464206  0.97209989     0.08260
H2921       H  0.84613798  0.27857236  0.98186632     0.08260
H2922       H  0.80690631  0.13485850  0.90880375     0.08240
H2923       H  0.80740337  0.12396985  0.95256757     0.08240
H2924       H  0.84513644  0.13509687  0.93221117     0.05020
C2925       C  0.14905363  0.72830842  0.05192647    -0.20790
C2926       C  0.12669895  0.74616456  0.03195874    -0.07350
C2927       C  0.09285352  0.74458739  0.04081688     0.13510
C2928       C  0.08206065  0.72088306  0.06390811    -0.20840
C2929       C  0.10395426  0.70175711  0.08290087    -0.07360
C2930       C  0.13813782  0.70870435  0.07892630     0.13500
C2931       C  0.16331627  0.69880442  0.10460278    -0.24190
H2932       H  0.17527870  0.73083738  0.04770017     0.14790
H2933       H  0.05624516  0.71771156  0.06642795     0.14820
C2934       C  0.06771235  0.76910368  0.02868202    -0.24140
H2935       H  0.17998006  0.71997045  0.11001459     0.05030
H2936       H  0.17838463  0.67789388  0.09511306     0.08260
H2937       H  0.15133698  0.69280964  0.12879785     0.08260
H2938       H  0.04854432  0.75645993  0.01342509     0.08240
H2939       H  0.07929072  0.78948967  0.01441751     0.08240
H2940       H  0.05537691  0.78068321  0.05065202     0.05020
C2941       C  0.09466837  0.74575064  0.95636334    -0.20790
C2942       C  0.12725441  0.74232098  0.96872447    -0.07350
C2943       C  0.14645181  0.71671491  0.95464221     0.13510
C2944       C  0.13376345  0.69782515  0.92813292    -0.20840
C2945       C  0.09975273  0.69743605  0.91937186    -0.07360
C2946       C  0.07964851  0.72132433  0.93580780     0.13500
C2947       C  0.04249534  0.71977172  0.93667119    -0.24190
H2948       H  0.07952231  0.76580278  0.96506504     0.14790
H2949       H  0.15046708  0.67993607  0.91757038     0.14820
C2950       C  0.17943940  0.70618940  0.96829370    -0.24140
H2951       H  0.03400939  0.71995492  0.96315286     0.05030
H2952       H  0.03251021  0.69684849  0.92564316     0.08260
H2953       H  0.03190838  0.74164599  0.92396166     0.08260
H2954       H  0.18572932  0.71888628  0.99174010     0.08240
H2955       H  0.19905870  0.71071650  0.94939257     0.08240
H2956       H  0.17879065  0.67943175  0.97419483     0.05020
C2957       C  0.19945619  0.83288647  0.01682896    -0.20790
C2958       C  0.17639165  0.80843794  0.02648205    -0.07350
C2959       C  0.17308072  0.80445963  0.06184898     0.13510
C2960       C  0.19965219  0.81363404  0.08329437    -0.20840
C2961       C  0.22715552  0.83136569  0.07113556    -0.07360
C2962       C  0.22615260  0.84196097  0.03732120     0.13500
C2963       C  0.25321824  0.86264664  0.02204682    -0.24190
H2964       H  0.19933378  0.84185410  0.99129268     0.14790
H2965       H  0.19736442  0.80973794  0.11005745     0.14820
C2966       C  0.13977702  0.80184920  0.07833007    -0.24140
H2967       H  0.24609013  0.87238588  0.99707624     0.05030
H2968       H  0.27546946  0.84723711  0.01805550     0.08260
H2969       H  0.25908729  0.88408221  0.03837411     0.08260
H2970       H  0.13782331  0.77894748  0.09326763     0.08240
H2971       H  0.11960168  0.80391017  0.05976213     0.08240
H2972       H  0.13623614  0.82291858  0.09585352     0.05020
C2973       C  0.17372216  0.80033670  0.93601997    -0.20790
C2974       C  0.18470564  0.78669111  0.96665206    -0.07350
C2975       C  0.21889672  0.78001246  0.96986763     0.13510
C2976       C  0.24086429  0.79219360  0.94615468    -0.20840
C2977       C  0.23104767  0.81009099  0.91733645    -0.07360
C2978       C  0.19645887  0.80992926  0.91043401     0.13500
C2979       C  0.18278324  0.81679557  0.87615599    -0.24190
H2980       H  0.14745549  0.80379551  0.93209594     0.14790
H2981       H  0.26653102  0.78824335  0.95212686     0.14820
C2982       C  0.23424306  0.76310326  0.99990327    -0.24140
H2983       H  0.16825219  0.79510739  0.86758431     0.05030
H2984       H  0.20253833  0.82065708  0.85735990     0.08260
H2985       H  0.16602074  0.83841968  0.87696344     0.08260
H2986       H  0.21624917  0.75614622  0.01936711     0.08240
H2987       H  0.25260285  0.77971791  0.01195895     0.08240
H2988       H  0.24720280  0.74038654  0.99150154     0.05020
C2989       C  0.23179327  0.49354417  0.63264708    -0.20790
C2990       C  0.23441557  0.49474699  0.66783361    -0.07350
C2991       C  0.22130432  0.52315600  0.68418394     0.13510
C2992       C  0.20971850  0.54937909  0.66474982    -0.20840
C2993       C  0.20123356  0.54468094  0.63102736    -0.07360
C2994       C  0.21170136  0.51530918  0.61511351     0.13500
C2995       C  0.19993382  0.50358909  0.58132786    -0.24190
H2996       H  0.24223642  0.47355406  0.61846680     0.14790
H2997       H  0.20260834  0.57165782  0.67751336     0.14820
C2998       C  0.21401898  0.52592966  0.72102593    -0.24140
H2999       H  0.18666954  0.47982143  0.58411624     0.05030
H3000       H  0.22140523  0.49949568  0.56445741     0.08260
H3001       H  0.18283980  0.52092771  0.56940251     0.08260
H3002       H  0.22929118  0.54576594  0.73242581     0.08240
H3003       H  0.21774342  0.50265076  0.73426070     0.08240
H3004       H  0.18754055  0.53227335  0.72471046     0.05020
C3005       C  0.24880247  0.41778545  0.64213894    -0.20790
C3006       C  0.23528456  0.43210724  0.67145072    -0.07350
C3007       C  0.20619246  0.41813374  0.68447487     0.13510
C3008       C  0.19708487  0.38719801  0.67312019    -0.20840
C3009       C  0.20308828  0.37875035  0.63939675    -0.07360
C3010       C  0.22934457  0.39562969  0.62300301     0.13500
C3011       C  0.23466007  0.39540384  0.58566988    -0.24190
H3012       H  0.27080889  0.42849329  0.63113018     0.14790
H3013       H  0.17854323  0.37419909  0.68752005     0.14820
C3014       C  0.18221246  0.43569233  0.70741368    -0.24140
H3015       H  0.23499251  0.42119633  0.57636601     0.05030
H3016       H  0.21452560  0.38292664  0.57194584     0.08260
H3017       H  0.25874722  0.38376401  0.57953624     0.08260
H3018       H  0.19109369  0.46006555  0.71541137     0.08240
H3019       H  0.17701894  0.42066012  0.73002368     0.08240
H3020       H  0.15849629  0.43937897  0.69390509     0.05020
C3021       C  0.32523899  0.43967207  0.71487380    -0.20790
C3022       C  0.29134212  0.43493289  0.71836937    -0.07350
C3023       C  0.28044004  0.40514025  0.73364721     0.13510
C3024       C  0.30390399  0.38189684  0.74396413    -0.20840
C3025       C  0.33675933  0.39142321  0.74915516    -0.07360
C3026       C  0.34784125  0.42009331  0.73208760     0.13500
C3027       C  0.38304518  0.43036303  0.72958858    -0.24190
H3028       H  0.33397682  0.46116042  0.70136450     0.14790
H3029       H  0.29537971  0.35867881  0.75401188     0.14820
C3030       C  0.24603459  0.39908497  0.74585849    -0.24140
H3031       H  0.38602629  0.45530722  0.71852352     0.05030
H3032       H  0.39504650  0.41311222  0.71193992     0.08260
H3033       H  0.39455167  0.43167614  0.75446119     0.08260
H3034       H  0.23119620  0.42147776  0.74397601     0.08240
H3035       H  0.24644600  0.39278471  0.77295776     0.08240
H3036       H  0.23473362  0.37818914  0.73196951     0.05020
C3037       C  0.29777594  0.52172567  0.71072291    -0.20790
C3038       C  0.28161348  0.49559891  0.72753269    -0.07350
C3039       C  0.27540442  0.49900591  0.76207252     0.13510
C3040       C  0.28439664  0.52796187  0.77800936    -0.20840
C3041       C  0.30758387  0.55024152  0.76411386    -0.07360
C3042       C  0.30986315  0.54968740  0.72856571     0.13500
C3043       C  0.31860957  0.57976564  0.70862316    -0.24190
H3044       H  0.30047033  0.52058009  0.68371456     0.14790
H3045       H  0.27518480  0.53097859  0.80322370     0.14820
C3046       C  0.25900823  0.47265353  0.78303704    -0.24140
H3047       H  0.29803699  0.58537476  0.69110792     0.05030
H3048       H  0.34116336  0.57545262  0.69347738     0.08260
H3049       H  0.32135544  0.60183036  0.72480253     0.08260
H3050       H  0.27460799  0.45024738  0.78339442     0.08240
H3051       H  0.23394695  0.46711445  0.77357407     0.08240
H3052       H  0.25607456  0.48026918  0.80965567     0.05020
C3053       C  0.43269228  0.20958739  0.67945239    -0.20790
C3054       C  0.43545167  0.24133857  0.66640071    -0.07350
C3055       C  0.40983797  0.25363952  0.64595479     0.13510
C3056       C  0.38250353  0.23320340  0.63884309    -0.20840
C3057       C  0.38120323  0.19994910  0.64939471    -0.07360
C3058       C  0.40448725  0.19064659  0.67449236     0.13500
C3059       C  0.39808814  0.16448074  0.70055020    -0.24190
H3060       H  0.45152288  0.20062537  0.69649290     0.14790
H3061       H  0.36267827  0.24390813  0.62486170     0.14820
C3062       C  0.41212505  0.28695289  0.62937962    -0.24140
H3063       H  0.40852745  0.17198812  0.72520581     0.05030
H3064       H  0.40991007  0.14080656  0.69339282     0.08260
H3065       H  0.37127555  0.16167290  0.70504822     0.08260
H3066       H  0.43535178  0.28873966  0.61474408     0.08240
H3067       H  0.41137759  0.30708833  0.64804528     0.08240
H3068       H  0.39124363  0.29110202  0.61182060     0.05020
C3069       C  0.50037192  0.24223503  0.62920753    -0.20790
C3070       C  0.49679144  0.24442691  0.66415465    -0.07350
C3071       C  0.51946089  0.22745582  0.68483665     0.13510
C3072       C  0.54511413  0.20952919  0.66980075    -0.20840
C3073       C  0.54672732  0.20460544  0.63485278    -0.07360
C3074       C  0.52440869  0.22223595  0.61424271     0.13500
C3075       C  0.52492996  0.22125310  0.57657834    -0.24190
H3076       H  0.48303471  0.25510744  0.61322207     0.14790
H3077       H  0.56243225  0.19697946  0.68593222     0.14820
C3078       C  0.51594973  0.22462704  0.72235055    -0.24140
H3079       H  0.52742232  0.24672487  0.56673014     0.05030
H3080       H  0.50151100  0.21044248  0.56703521     0.08260
H3081       H  0.54587992  0.20704915  0.56666776     0.08260
H3082       H  0.49276514  0.23533787  0.73203713     0.08240
H3083       H  0.53721193  0.23689346  0.73483241     0.08240
H3084       H  0.51570605  0.19817335  0.72950691     0.05020
C3085       C  0.54870490  0.32040260  0.72909678    -0.20790
C3086       C  0.54105055  0.32675803  0.76300131    -0.07350
C3087       C  0.50786645  0.32209226  0.77348338     0.13510
C3088       C  0.48653448  0.30448619  0.75293748    -0.20840
C3089       C  0.49314785  0.29888780  0.71882469    -0.07360
C3090       C  0.52413044  0.30969548  0.70626703     0.13500
C3091       C  0.53160207  0.31245690  0.66955744    -0.24190
H3092       H  0.57348348  0.32469590  0.71999347     0.14790
H3093       H  0.46307808  0.29698851  0.76348830     0.14820
C3094       C  0.49389396  0.33369688  0.80666824    -0.24140
H3095       H  0.54007974  0.33790458  0.66394441     0.05030
H3096       H  0.50963135  0.30784128  0.65368413     0.08260
H3097       H  0.55161737  0.29497488  0.66304332     0.08260
H3098       H  0.48367438  0.35877020  0.80402950     0.08240
H3099       H  0.51195787  0.33456734  0.82707027     0.08240
H3100       H  0.47378838  0.31717896  0.81531318     0.05020
C3101       C  0.38337284  0.30467211  0.74408729    -0.20790
C3102       C  0.38955867  0.33813195  0.75070652    -0.07350
C3103       C  0.41701364  0.35290172  0.73437404     0.13510
C3104       C  0.43242771  0.33583270  0.70828682    -0.20840
C3105       C  0.43196534  0.30126596  0.70853266    -0.07360
C3106       C  0.40739255  0.28535275  0.72820561     0.13500
C3107       C  0.40992905  0.25038315  0.74042200    -0.24190
H3108       H  0.36400659  0.29209527  0.75747105     0.14790
H3109       H  0.45219604  0.34812590  0.69477511     0.14820
C3110       C  0.43704359  0.38082505  0.74887175    -0.24140
H3111       H  0.40598352  0.24957192  0.76799746     0.05030
H3112       H  0.43482656  0.23999581  0.73659152     0.08260
H3113       H  0.39057203  0.23505002  0.72834769     0.08260
H3114       H  0.42553199  0.39209283  0.77103795     0.08240
H3115       H  0.44286285  0.39975306  0.72981216     0.08240
H3116       H  0.46137704  0.37124887  0.75642912     0.05020
C3117       C  0.60264071  0.42042003  0.28543826    -0.20790
C3118       C  0.63598982  0.42783457  0.27927928    -0.07350
C3119       C  0.65496075  0.40446606  0.26106301     0.13510
C3120       C  0.64031522  0.37499147  0.25093994    -0.20840
C3121       C  0.60585012  0.37262450  0.24877819    -0.07360
C3122       C  0.58657378  0.39483155  0.26819393     0.13500
C3123       C  0.54945544  0.39358781  0.27004321    -0.24190
H3124       H  0.58830014  0.43595111  0.30182098     0.14790
H3125       H  0.65535837  0.35744162  0.23710468     0.14820
C3126       C  0.68876155  0.41084371  0.24712753    -0.24140
H3127       H  0.53916292  0.41475630  0.28440560     0.05030
H3128       H  0.54159439  0.37097001  0.28333760     0.08260
H3129       H  0.53859609  0.39476657  0.24464813     0.08260
H3130       H  0.70618980  0.39175858  0.25625467     0.08240
H3131       H  0.69771552  0.43574778  0.25342114     0.08240
H3132       H  0.68796846  0.40911041  0.21932246     0.05020
C3133       C  0.59997711  0.50070254  0.28607494    -0.20790
C3134       C  0.63176524  0.49082699  0.27539534    -0.07350
C3135       C  0.64451917  0.50771833  0.24743440     0.13510
C3136       C  0.63326430  0.53955429  0.24146564    -0.20840
C3137       C  0.59942815  0.54624810  0.24590728    -0.07360
C3138       C  0.58188961  0.52377905  0.26684660     0.13500
C3139       C  0.54501247  0.52030787  0.26634344    -0.24190
H3140       H  0.58767917  0.48802483  0.30626954     0.14790
H3141       H  0.64812358  0.55466428  0.22521312     0.14820
C3142       C  0.66145292  0.49078841  0.21841024    -0.24140
H3143       H  0.53832421  0.49494370  0.25821301     0.05030
H3144       H  0.53362131  0.53761939  0.24852974     0.08260
H3145       H  0.53483088  0.52426647  0.29172207     0.08260
H3146       H  0.66330509  0.46409480  0.22214429     0.08240
H3147       H  0.68600086  0.50170219  0.21301691     0.08240
H3148       H  0.64613049  0.49391372  0.19550731     0.05020
C3149       C  0.68169936  0.49919528  0.36400005    -0.20790
C3150       C  0.68360267  0.49600347  0.32888233    -0.07350
C3151       C  0.70007657  0.52138174  0.31095296     0.13510
C3152       C  0.71167944  0.54894903  0.32826851    -0.20840
C3153       C  0.71760300  0.54699282  0.36276715    -0.07360
C3154       C  0.70124760  0.52213194  0.38137028     0.13500
C3155       C  0.70622371  0.51695399  0.41850021    -0.24190
H3156       H  0.66789341  0.48148897  0.37837369     0.14790
H3157       H  0.72388829  0.56824832  0.31406134     0.14820
C3158       C  0.71200578  0.51847491  0.27547785    -0.24140
H3159       H  0.69437398  0.49379528  0.42719287     0.05030
H3160       H  0.69492833  0.53706701  0.43326843     0.08260
H3161       H  0.73274747  0.51489935  0.42449594     0.08260
H3162       H  0.70591008  0.49432310  0.26452935     0.08240
H3163       H  0.70180589  0.53883896  0.26014191     0.08240
H3164       H  0.73939833  0.52060557  0.27490297     0.05020
C3165       C  0.72851881  0.38927628  0.32965670    -0.20790
C3166       C  0.72275500  0.38159491  0.36356477    -0.07350
C3167       C  0.69606616  0.39895807  0.37927662     0.13510
C3168       C  0.67606591  0.41999430  0.35939378    -0.20840
C3169       C  0.68863379  0.43319980  0.32929372    -0.07360
C3170       C  0.71837312  0.41951417  0.31729274     0.13500
C3171       C  0.74409948  0.43811017  0.29784595    -0.24190
H3172       H  0.74802819  0.37728458  0.31585980     0.14790
H3173       H  0.65364266  0.43019577  0.37000573     0.14820
C3174       C  0.69276218  0.40327434  0.41654041    -0.24140
H3175       H  0.74954046  0.42638635  0.27332018     0.05030
H3176       H  0.76726843  0.43753795  0.31249436     0.08260
H3177       H  0.73789939  0.46410613  0.29489337     0.08260
H3178       H  0.71684811  0.40012081  0.42907147     0.08240
H3179       H  0.67361843  0.38652546  0.42667427     0.08240
H3180       H  0.68504531  0.42890520  0.42267499     0.05020
C3181       C  0.54993767  0.59614426  0.28513170    -0.20790
C3182       C  0.55154286  0.61213355  0.25386144    -0.07350
C3183       C  0.53265572  0.64161873  0.25120646     0.13510
C3184       C  0.50417986  0.64514142  0.27047674    -0.20840
C3185       C  0.49792069  0.62411119  0.29738376    -0.07360
C3186       C  0.52331921  0.60196960  0.30734808     0.13500
C3187       C  0.52216233  0.58311363  0.33988790    -0.24190
H3188       H  0.56851472  0.57870775  0.29232671     0.14790
H3189       H  0.48723723  0.66512800  0.26509429     0.14820
C3190       C  0.54259343  0.67056608  0.22993457    -0.24140
H3191       H  0.52265938  0.55621848  0.33532710     0.05030
H3192       H  0.49962868  0.58886242  0.35466059     0.08260
H3193       H  0.54424019  0.58933668  0.35518922     0.08260
H3194       H  0.52586304  0.67283326  0.20799226     0.08240
H3195       H  0.56870865  0.66870605  0.22193162     0.08240
H3196       H  0.54093986  0.69359427  0.24504702     0.05020
C3197       C  0.40249011  0.61437943  0.30690232    -0.20790
C3198       C  0.43630351  0.60734725  0.30085296    -0.07350
C3199       C  0.44156486  0.58164632  0.27688653     0.13510
C3200       C  0.41748162  0.57456292  0.25289815    -0.20840
C3201       C  0.38680316  0.59006844  0.25323622    -0.07360
C3202       C  0.37795861  0.60791994  0.28238831     0.13500
C3203       C  0.34312235  0.61925707  0.28889923    -0.24190
H3204       H  0.39469890  0.62512419  0.33032763     0.14790
H3205       H  0.42266639  0.55604961  0.23410198     0.14820
C3206       C  0.46952857  0.55762472  0.27889276    -0.24140
H3207       H  0.34259567  0.64644867  0.29164577     0.05030
H3208       H  0.33396874  0.60800213  0.31248295     0.08260
H3209       H  0.32588667  0.61215804  0.26853115     0.08260
H3210       H  0.47465809  0.55161233  0.30538506     0.08240
H3211       H  0.49094213  0.56765755  0.26547661     0.08240
H3212       H  0.46344693  0.53379102  0.26647132     0.05020
C3213       C  0.40108967  0.70499457  0.38652637    -0.20790
C3214       C  0.37981391  0.71778023  0.36189265    -0.07350
C3215       C  0.38270655  0.70600846  0.32862135     0.13510
C3216       C  0.40848219  0.68442110  0.32039704    -0.20840
C3217       C  0.43057498  0.67248983  0.34478516    -0.07360
C3218       C  0.42557096  0.68173370  0.37861200     0.13500
C3219       C  0.44643489  0.66767057  0.40640191    -0.24190
H3220       H  0.39865694  0.71361015  0.41216329     0.14790
H3221       H  0.41246138  0.67803353  0.29428758     0.14820
C3222       C  0.36051014  0.71777682  0.30088840    -0.24140
H3223       H  0.43741894  0.67566653  0.43145661     0.05030
H3224       H  0.47240259  0.67597939  0.40410266     0.08260
H3225       H  0.44547465  0.64031200  0.40541538     0.08260
H3226       H  0.36926185  0.74199169  0.29175077     0.08240
H3227       H  0.33451372  0.71926505  0.30971631     0.08240
H3228       H  0.36118190  0.70071470  0.27905276     0.05020
C3229       C  0.52139410  0.66754023  0.35560998    -0.20790
C3230       C  0.49233654  0.67953358  0.34039983    -0.07350
C3231       C  0.49142148  0.71355240  0.33300877     0.13510
C3232       C  0.51511695  0.73438212  0.34685791    -0.20840
C3233       C  0.54521318  0.72271747  0.36076364    -0.07360
C3234       C  0.54931426  0.68789618  0.36077626     0.13500
C3235       C  0.58242778  0.67109427  0.36053423    -0.24190
H3236       H  0.52317469  0.64199477  0.36200502     0.14790
H3237       H  0.50995560  0.76035853  0.34426419     0.14820
C3238       C  0.46757242  0.72892547  0.30864254    -0.24140
H3239       H  0.58378334  0.65410820  0.33864226     0.05030
H3240       H  0.58572730  0.65623981  0.38358917     0.08260
H3241       H  0.60294765  0.68883509  0.35722968     0.08260
H3242       H  0.44694863  0.74096756  0.32236752     0.08240
H3243       H  0.45859724  0.71068130  0.29011306     0.08240
H3244       H  0.48035633  0.74805078  0.29351498     0.05020
C3245       C  0.25245184  0.62183377  0.43978338    -0.20790
C3246       C  0.23925850  0.63447574  0.47000096    -0.07350
C3247       C  0.20473924  0.63370880  0.47380419     0.13510
C3248       C  0.18587990  0.61466380  0.45184207    -0.20840
C3249       C  0.19824110  0.60333335  0.42046240    -0.07360
C3250       C  0.23188379  0.61067470  0.41348006     0.13500
C3251       C  0.24625204  0.61145477  0.37868259    -0.24190
H3252       H  0.27861529  0.62201495  0.43560702     0.14790
H3253       H  0.16026081  0.61147652  0.45873280     0.14820
C3254       C  0.18665371  0.65491534  0.49900658    -0.24140
H3255       H  0.25851332  0.63564170  0.37460189     0.05030
H3256       H  0.22707277  0.60949661  0.35901322     0.08260
H3257       H  0.26510272  0.59177728  0.37566951     0.08260
H3258       H  0.16633747  0.66837547  0.48626822     0.08240
H3259       H  0.20280725  0.67400307  0.51012801     0.08240
H3260       H  0.17597600  0.63976336  0.51925374     0.05020
C3261       C  0.23955930  0.64709547  0.55908096    -0.20790
C3262       C  0.25279925  0.62909797  0.53205596    -0.07350
C3263       C  0.24870755  0.59442983  0.53302159     0.13510
C3264       C  0.22636524  0.58052768  0.55599028    -0.20840
C3265       C  0.21005148  0.59979849  0.58026402    -0.07360
C3266       C  0.22027907  0.63267364  0.58407854     0.13500
C3267       C  0.20946206  0.65388505  0.61309588    -0.24190
H3268       H  0.24006005  0.67299436  0.55951985     0.14790
H3269       H  0.21976661  0.55532298  0.55222006     0.14820
C3270       C  0.26533709  0.57175606  0.50821974    -0.24140
H3271       H  0.23135688  0.66640276  0.62411951     0.05030
H3272       H  0.19835197  0.63898629  0.63338061     0.08260
H3273       H  0.19170971  0.67289396  0.60437114     0.08260
H3274       H  0.28369429  0.58486553  0.49248571     0.08240
H3275       H  0.24648773  0.56012614  0.49173092     0.08240
H3276       H  0.27878499  0.55213185  0.52195899     0.05020
C3277       C  0.33699956  0.69142847  0.51991627    -0.20790
C3278       C  0.30259855  0.68738163  0.52268912    -0.07350
C3279       C  0.28700165  0.70775327  0.54671392     0.13510
C3280       C  0.30534192  0.71857333  0.57440836    -0.20840
C3281       C  0.33945527  0.72444837  0.57115901    -0.07360
C3282       C  0.35424317  0.71371419  0.54049498     0.13500
C3283       C  0.38694618  0.72550913  0.52719524    -0.24190
H3284       H  0.35020656  0.68050205  0.49936015     0.14790
H3285       H  0.29197639  0.72785228  0.59577011     0.14820
C3286       C  0.25577490  0.72670207  0.53888380    -0.24140
H3287       H  0.38316449  0.73936127  0.50370675     0.05030
H3288       H  0.40314800  0.70412733  0.52134597     0.08260
H3289       H  0.39995688  0.74157366  0.54485875     0.08260
H3290       H  0.23927536  0.72787236  0.56113004     0.08240
H3291       H  0.24197739  0.71584047  0.51762732     0.08240
H3292       H  0.26247158  0.75240298  0.53210961     0.05020
C3293       C  0.27142045  0.70737466  0.44739480    -0.20790
C3294       C  0.29171284  0.68288169  0.46068553    -0.07350
C3295       C  0.31904346  0.67176130  0.44154906     0.13510
C3296       C  0.32862538  0.68972379  0.41326627    -0.20840
C3297       C  0.31276321  0.71934771  0.40457176    -0.07360
C3298       C  0.28059940  0.72411411  0.41825980     0.13500
C3299       C  0.25477593  0.74515116  0.40173598    -0.24190
H3300       H  0.24820598  0.71330079  0.45953382     0.14790
H3301       H  0.34842400  0.67983826  0.39876619     0.14820
C3302       C  0.33865202  0.64118901  0.45006502    -0.24140
H3303       H  0.23127724  0.73108739  0.39977598     0.05030
H3304       H  0.26185823  0.75137907  0.37572391     0.08260
H3305       H  0.25029081  0.76780203  0.41680495     0.08260
H3306       H  0.33736940  0.62340309  0.42886010     0.08240
H3307       H  0.32925705  0.62868510  0.47285043     0.08240
H3308       H  0.36502860  0.64772778  0.45403631     0.05020
C3309       C  0.60811674  0.25623059  0.55778519    -0.20790
C3310       C  0.62617753  0.24365192  0.53039714    -0.07350
C3311       C  0.64205637  0.21282000  0.53418091     0.13510
C3312       C  0.63780350  0.19537285  0.56397505    -0.20840
C3313       C  0.61281796  0.20392608  0.58722138    -0.07360
C3314       C  0.60331532  0.23751668  0.58709160     0.13500
C3315       C  0.59632119  0.25635362  0.61870585    -0.24190
H3316       H  0.59933870  0.28137952  0.55709807     0.14790
H3317       H  0.65122077  0.17246596  0.56655816     0.14820
C3318       C  0.66228451  0.19684795  0.50670008    -0.24140
H3319       H  0.61469370  0.27656869  0.62143877     0.05030
H3320       H  0.59899396  0.24069957  0.64124630     0.08260
H3321       H  0.57151651  0.26773071  0.61726276     0.08260
H3322       H  0.68174758  0.21358608  0.49728037     0.08240
H3323       H  0.64574296  0.18953473  0.48580971     0.08240
H3324       H  0.67471678  0.17399114  0.51535562     0.05020
C3325       C  0.64510360  0.24126119  0.44418596    -0.20790
C3326       C  0.62184281  0.25160374  0.46798838    -0.07350
C3327       C  0.58838395  0.24170955  0.46364413     0.13510
C3328       C  0.57998074  0.21902260  0.43821833    -0.20840
C3329       C  0.60374304  0.20725271  0.41553611    -0.07360
C3330       C  0.63648245  0.21991498  0.41784401     0.13500
C3331       C  0.66325302  0.21018489  0.39364435    -0.24190
H3332       H  0.67080735  0.24796906  0.44759585     0.14790
H3333       H  0.55489148  0.20971939  0.43671483     0.14820
C3334       C  0.56100465  0.25412190  0.48591835    -0.24140
H3335       H  0.68591576  0.22532009  0.39709062     0.05030
H3336       H  0.65474167  0.21392628  0.36751073     0.08260
H3337       H  0.67043481  0.18429668  0.39809655     0.08260
H3338       H  0.56929339  0.27411125  0.50295354     0.08240
H3339       H  0.55095634  0.23344320  0.50099792     0.08240
H3340       H  0.54090754  0.26448293  0.47019371     0.05020
C3341       C  0.70344480  0.32730534  0.48779707    -0.20790
C3342       C  0.67404175  0.31121950  0.47789266    -0.07350
C3343       C  0.66547652  0.31499979  0.44334365     0.13510
C3344       C  0.69046700  0.32357678  0.41972393    -0.20840
C3345       C  0.72139851  0.33569678  0.43054142    -0.07360
C3346       C  0.72551675  0.34111623  0.46533176     0.13500
C3347       C  0.75266915  0.36195360  0.48023509    -0.24190
H3348       H  0.71041938  0.32971064  0.51375370     0.14790
H3349       H  0.68506991  0.32282754  0.39312747     0.14820
C3350       C  0.63024695  0.31569640  0.43137787    -0.24140
H3351       H  0.74498573  0.37289153  0.50461865     0.05030
H3352       H  0.75845205  0.38323793  0.46399590     0.08260
H3353       H  0.77447017  0.34629335  0.48520778     0.08260
H3354       H  0.61245048  0.31315346  0.45235008     0.08240
H3355       H  0.62600815  0.29632639  0.41214860     0.08240
H3356       H  0.62521384  0.33997288  0.41963075     0.05020
C3357       C  0.69533372  0.27258693  0.54846734    -0.20790
C3358       C  0.67062871  0.29497838  0.53988635    -0.07350
C3359       C  0.66515572  0.32219379  0.56126466     0.13510
C3360       C  0.68654672  0.32742687  0.58883058    -0.20840
C3361       C  0.71580537  0.30873667  0.59315721    -0.07360
C3362       C  0.71665587  0.27797992  0.57545178     0.13500
C3363       C  0.73776710  0.24902558  0.58537745    -0.24190
H3364       H  0.69951295  0.25145294  0.53257079     0.14790
H3365       H  0.68026047  0.34678276  0.60584941     0.14820
C3366       C  0.63865038  0.34708031  0.55349723    -0.24140
H3367       H  0.72894563  0.22577140  0.57352645     0.05030
H3368       H  0.73566480  0.24498935  0.61270144     0.08260
H3369       H  0.76354372  0.25198340  0.57677117     0.08260
H3370       H  0.61404127  0.33514178  0.55314535     0.08240
H3371       H  0.64341259  0.35826056  0.52858952     0.08240
H3372       H  0.63802578  0.36726387  0.57240150     0.05020
C3373       C  0.17966844  0.91335613  0.14437261    -0.20790
C3374       C  0.19370083  0.93490685  0.16805166    -0.07350
C3375       C  0.22715956  0.93040694  0.17653120     0.13510
C3376       C  0.24402925  0.90338314  0.16353150    -0.20840
C3377       C  0.23310462  0.88542219  0.13481108    -0.07360
C3378       C  0.20014373  0.89317060  0.12390944     0.13500
C3379       C  0.18934719  0.89160053  0.08794199    -0.24190
H3380       H  0.15430617  0.91781747  0.13681641     0.14790
H3381       H  0.26768177  0.89900815  0.17511697     0.14820
C3382       C  0.24662515  0.95355130  0.19899587    -0.24140
H3383       H  0.17378503  0.91311183  0.08118366     0.05030
H3384       H  0.17346859  0.87000727  0.08331280     0.08260
H3385       H  0.21092162  0.89371346  0.07119900     0.08260
H3386       H  0.23176775  0.97390088  0.20973226     0.08240
H3387       H  0.26717796  0.96463662  0.18439679     0.08240
H3388       H  0.25734317  0.93958255  0.22028729     0.05020
C3389       C  0.10289968  0.03904248  0.23535603    -0.20790
C3390       C  0.10364491  0.03241021  0.27029580    -0.07350
C3391       C  0.12191799  0.00393438  0.28040374     0.13510
C3392       C  0.14155773  0.98722173  0.25737748    -0.20840
C3393       C  0.13771473  0.99124438  0.22291986    -0.07360
C3394       C  0.11694722  0.01696946  0.21158251     0.13500
C3395       C  0.10839081  0.02047324  0.17502755    -0.24190
H3396       H  0.09057774  0.06055914  0.22589058     0.14790
H3397       H  0.15718094  0.96754992  0.26646243     0.14820
C3398       C  0.11845275  0.98728643  0.31402582    -0.24140
H3399       H  0.09033734  0.04069896  0.17093902     0.05030
H3400       H  0.09714401  0.99721747  0.16567947     0.08260
H3401       H  0.13064512  0.02607990  0.15998802     0.08260
H3402       H  0.09198445  0.98604438  0.32111512     0.08240
H3403       H  0.13376508  0.99958775  0.33334125     0.08240
H3404       H  0.12737094  0.96141206  0.31323196     0.05020
C3405       C  0.19350184  0.02733053  0.18373589    -0.20790
C3406       C  0.19073700  0.99773205  0.16487997    -0.07350
C3407       C  0.20735651  0.99746452  0.13333348     0.13510
C3408       C  0.23141544  0.02113209  0.12629089    -0.20840
C3409       C  0.23129281  0.05159541  0.14271510    -0.07360
C3410       C  0.21023235  0.05526002  0.17088754     0.13500
C3411       C  0.20351720  0.08813802  0.18688750    -0.24190
H3412       H  0.18255547  0.02968190  0.20819329     0.14790
H3413       H  0.24734365  0.01763673  0.10468651     0.14820
C3414       C  0.19791525  0.97524452  0.10474061    -0.24140
H3415       H  0.17637394  0.09186520  0.18877203     0.05030
H3416       H  0.21303148  0.10870290  0.17142259     0.08260
H3417       H  0.21418224  0.08896999  0.21250382     0.08260
H3418       H  0.17276825  0.96519243  0.10837117     0.08240
H3419       H  0.21693383  0.95583584  0.10133598     0.08240
H3420       H  0.19640648  0.98945773  0.08107374     0.05020
C3421       C  0.10203041  0.92749228  0.21635502    -0.20790
C3422       C  0.13673826  0.93015305  0.21452110    -0.07350
C3423       C  0.15539998  0.90704033  0.23346948     0.13510
C3424       C  0.13930101  0.88139153  0.25040162    -0.20840
C3425       C  0.10522103  0.88205896  0.25675451    -0.07360
C3426       C  0.08626846  0.90614728  0.23937230     0.13500
C3427       C  0.05063871  0.91299687  0.24744904    -0.24190
H3428       H  0.08732391  0.94576083  0.20334380     0.14790
H3429       H  0.15440541  0.86403683  0.26384268     0.14820
C3430       C  0.19091048  0.91209604  0.24314484    -0.24140
H3431       H  0.03481122  0.89235064  0.23923819     0.05030
H3432       H  0.04134987  0.93522332  0.23425274     0.08260
H3433       H  0.04804658  0.91796626  0.27463026     0.08260
H3434       H  0.19884296  0.93760930  0.23858892     0.08240
H3435       H  0.20682333  0.89392466  0.22996479     0.08240
H3436       H  0.19403617  0.90855777  0.27059159     0.05020
C3437       C  0.00647572  0.21762228  0.18945361    -0.20790
C3438       C  0.99739292  0.18710791  0.17578167    -0.07350
C3439       C  0.01320172  0.17708119  0.14576757     0.13510
C3440       C  0.03526704  0.19905511  0.12942412    -0.20840
C3441       C  0.04508656  0.22938182  0.14420227    -0.07360
C3442       C  0.03322770  0.23553606  0.17718566     0.13500
C3443       C  0.04931368  0.25934570  0.20131639    -0.24190
H3444       H  0.99446393  0.22673693  0.21173260     0.14790
H3445       H  0.04341707  0.19236741  0.10480044     0.14820
C3446       C  0.00610818  0.14398093  0.13019099    -0.24140
H3447       H  0.05005389  0.24865767  0.22689473     0.05030
H3448       H  0.03504163  0.28268689  0.20268764     0.08260
H3449       H  0.07547971  0.26372923  0.19451223     0.08260
H3450       H  0.98010038  0.14258522  0.12193330     0.08240
H3451       H  0.01110266  0.12416821  0.14863639     0.08240
H3452       H  0.02189220  0.13941033  0.10785880     0.05020
C3453       C  0.91832326  0.11243614  0.28710482    -0.20790
C3454       C  0.88861859  0.10090214  0.27254538    -0.07350
C3455       C  0.88429320  0.10805184  0.23783123     0.13510
C3456       C  0.91115909  0.12117056  0.21896492    -0.20840
C3457       C  0.94039983  0.13284566  0.23450677    -0.07360
C3458       C  0.94234650  0.13004233  0.26980160     0.13500
C3459       C  0.96893085  0.14628468  0.29074852    -0.24190
H3460       H  0.92319927  0.10901764  0.31333914     0.14790
H3461       H  0.90860001  0.12303723  0.19210094     0.14820
C3462       C  0.85146109  0.10558732  0.22043957    -0.24140
H3463       H  0.96304241  0.14582905  0.31795865     0.05030
H3464       H  0.97116867  0.17262441  0.28408888     0.08260
H3465       H  0.99258062  0.13304601  0.28825246     0.08260
H3466       H  0.83072381  0.10498838  0.23851310     0.08240
H3467       H  0.85102637  0.08368303  0.20366524     0.08240
H3468       H  0.84735314  0.12796902  0.20499878     0.05020
C3469       C  0.05441063  0.12148430  0.25281176    -0.20790
C3470       C  0.04799096  0.08830793  0.25968130    -0.07350
C3471       C  0.02221308  0.07256353  0.24193508     0.13510
C3472       C  0.00033298  0.09192718  0.22266862    -0.20840
C3473       C  0.00203945  0.12679214  0.22274855    -0.07360
C3474       C  0.03045217  0.14153849  0.23779138     0.13500
C3475       C  0.03295626  0.17732653  0.24698040    -0.24190
H3476       H  0.07516569  0.13319939  0.26526510     0.14790
H3477       H  0.97952865  0.08003065  0.21048776     0.14820
C3478       C  0.01717083  0.03578041  0.24365556    -0.24140
H3479       H  0.04166310  0.18030353  0.27326673     0.05030
H3480       H  0.00863868  0.18928287  0.24669680     0.08260
H3481       H  0.05110254  0.18952343  0.23031756     0.08260
H3482       H  0.01451403  0.02745292  0.26982274     0.08240
H3483       H  0.03856191  0.02287691  0.23230008     0.08240
H3484       H  0.99471703  0.02798929  0.22970142     0.05020
C3485       C  0.89998625  0.23248920  0.17650053    -0.20790
C3486       C  0.88826968  0.22402211  0.14375914    -0.07350
C3487       C  0.89652873  0.19088005  0.13349654     0.13510
C3488       C  0.92137127  0.17322144  0.15066980    -0.20840
C3489       C  0.93570942  0.18464858  0.18023874    -0.07360
C3490       C  0.92244774  0.21325895  0.19483696     0.13500
C3491       C  0.93131501  0.22440120  0.22974135    -0.24190
H3492       H  0.89242337  0.25494578  0.18874505     0.14790
H3493       H  0.92940350  0.14954314  0.14109812     0.14820
C3494       C  0.87874416  0.17077633  0.10773050    -0.24140
H3495       H  0.90853852  0.22576106  0.24522517     0.05030
H3496       H  0.94275715  0.24928706  0.22888468     0.08260
H3497       H  0.94848515  0.20718883  0.24228289     0.08260
H3498       H  0.88904433  0.17597936  0.08284433     0.08240
H3499       H  0.85175132  0.17331233  0.11076716     0.08240
H3500       H  0.88301147  0.14390675  0.11115899     0.05020
C3501       C  0.13169913  0.22454856  0.97816230    -0.20790
C3502       C  0.13326572  0.19072178  0.97185134    -0.07350
C3503       C  0.12025048  0.17889671  0.94094451     0.13510
C3504       C  0.10734852  0.20170687  0.91731384    -0.20840
C3505       C  0.10303430  0.23547253  0.92541689    -0.07360
C3506       C  0.11410469  0.24602291  0.95776414     0.13500
C3507       C  0.10557325  0.27880553  0.97358937    -0.24190
H3508       H  0.14185729  0.23395106  0.00151105     0.14790
H3509       H  0.09967570  0.19264332  0.89300254     0.14820
C3510       C  0.11777667  0.14277098  0.93273957    -0.24140
H3511       H  0.10927415  0.27848706  0.00115448     0.05030
H3512       H  0.07905754  0.28449670  0.96959786     0.08260
H3513       H  0.12218427  0.29844051  0.96429762     0.08260
H3514       H  0.12434675  0.12699846  0.95429597     0.08240
H3515       H  0.13416716  0.13681786  0.91122086     0.08240
H3516       H  0.09187456  0.13666595  0.92588623     0.05020
C3517       C  0.17938550  0.11262240  0.04893316    -0.20790
C3518       C  0.18942928  0.14179120  0.03351156    -0.07350
C3519       C  0.21683237  0.15863589  0.04709448     0.13510
C3520       C  0.23350914  0.14535060  0.07471312    -0.20840
C3521       C  0.22783028  0.11289261  0.08671513    -0.07360
C3522       C  0.19916198  0.09665217  0.07315326     0.13500
C3523       C  0.18952269  0.06191282  0.08023410    -0.24190
H3524       H  0.15706369  0.10084874  0.03984292     0.14790
H3525       H  0.25309017  0.16023541  0.08538093     0.14820
C3526       C  0.22811069  0.19172568  0.03438874    -0.24140
H3527       H  0.16812425  0.05346518  0.06499094     0.05030
H3528       H  0.18132758  0.05970356  0.10653500     0.08260
H3529       H  0.21025146  0.04581927  0.07276012     0.08260
H3530       H  0.21140700  0.20195608  0.01520733     0.08240
H3531       H  0.25335618  0.18949152  0.02368966     0.08240
H3532       H  0.22863329  0.20972535  0.05544995     0.05020
C3533       C  0.14101155  0.19049498  0.06363125    -0.20790
C3534       C  0.12482427  0.18011116  0.03397126    -0.07350
C3535       C  0.09030255  0.18691879  0.03219280     0.13510
C3536       C  0.07615601  0.21034916  0.05401987    -0.20840
C3537       C  0.09356321  0.22245064  0.08186792    -0.07360
C3538       C  0.12486983  0.20886198  0.08862731     0.13500
C3539       C  0.14211088  0.21355684  0.12174124    -0.24190
H3540       H  0.16673087  0.18672404  0.06763485     0.14790
H3541       H  0.05125937  0.21907943  0.04937478     0.14820
C3542       C  0.06807612  0.17106497  0.00657786    -0.24140
H3543       H  0.14723006  0.18901332  0.13286241     0.05030
H3544       H  0.12672570  0.22746003  0.13998653     0.08260
H3545       H  0.16604434  0.22644334  0.11799269     0.08260
H3546       H  0.08073025  0.15102007  0.99269605     0.08240
H3547       H  0.05906533  0.18994400  0.98874933     0.08240
H3548       H  0.04652438  0.15978743  0.01942835     0.05020
C3549       C  0.18657549  0.10218602  0.96997302    -0.20790
C3550       C  0.18761624  0.13658027  0.97057478    -0.07350
C3551       C  0.20760590  0.15206038  0.94611538     0.13510
C3552       C  0.22671800  0.13243573  0.92377952    -0.20840
C3553       C  0.23023066  0.09763781  0.92712749    -0.07360
C3554       C  0.20918801  0.08304226  0.95164072     0.13500
C3555       C  0.21103046  0.04809955  0.96220535    -0.24190
H3556       H  0.16967487  0.08981135  0.98672791     0.14790
H3557       H  0.24058845  0.14538579  0.90499297     0.14820
C3558       C  0.21057419  0.18890428  0.94307723    -0.24140
H3559       H  0.20069172  0.04417611  0.98772580     0.05030
H3560       H  0.23694101  0.04042091  0.96419792     0.08260
H3561       H  0.19507546  0.03395372  0.94505195     0.08260
H3562       H  0.19559048  0.20237633  0.96165774     0.08240
H3563       H  0.20236574  0.19664549  0.91773267     0.08240
H3564       H  0.23676932  0.19631328  0.94665862     0.05020
C3565       C  0.51791940  0.25206786  0.34758198    -0.20790
C3566       C  0.49299137  0.23718955  0.32786308    -0.07350
C3567       C  0.49449708  0.20298397  0.32295265     0.13510
C3568       C  0.51689045  0.18450848  0.34123779    -0.20840
C3569       C  0.54458182  0.19841001  0.35821375    -0.07360
C3570       C  0.54583306  0.23371346  0.35859813     0.13500
C3571       C  0.57695723  0.25311698  0.36417170    -0.24190
H3572       H  0.51782190  0.27868168  0.35032544     0.14790
H3573       H  0.51274999  0.15829987  0.33955971     0.14820
C3574       C  0.47358107  0.18486415  0.29760506    -0.24140
H3575       H  0.57869095  0.27334355  0.34556306     0.05030
H3576       H  0.59913952  0.23776527  0.35980806     0.08260
H3577       H  0.57676775  0.26469293  0.38938572     0.08260
H3578       H  0.46555265  0.20142013  0.27724034     0.08240
H3579       H  0.45217191  0.17305102  0.31014596     0.08240
H3580       H  0.48843175  0.16532080  0.28507599     0.05020
C3581       C  0.42865324  0.32485005  0.27689400    -0.20790
C3582       C  0.43030880  0.29014864  0.27511153    -0.07350
C3583       C  0.40560497  0.27429243  0.25528768     0.13510
C3584       C  0.37679857  0.29160372  0.24767415    -0.20840
C3585       C  0.37840965  0.32572466  0.24262737    -0.07360
C3586       C  0.40698235  0.34218722  0.25559003     0.13500
C3587       C  0.41816894  0.37593188  0.24440691    -0.24190
H3588       H  0.44878051  0.33812360  0.28882153     0.14790
H3589       H  0.35655793  0.27771491  0.23752575     0.14820
C3590       C  0.41144773  0.24377198  0.23407886    -0.24140
H3591       H  0.42164194  0.39224179  0.26656924     0.05030
H3592       H  0.40028818  0.38784422  0.22738782     0.08260
H3593       H  0.44214496  0.37376345  0.23100073     0.08260
H3594       H  0.39196367  0.22502954  0.23863940     0.08240
H3595       H  0.43616117  0.23283912  0.23838532     0.08240
H3596       H  0.40983536  0.25034583  0.20711157     0.05020
C3597       C  0.40915861  0.22749304  0.31305431    -0.20790
C3598       C  0.43176820  0.24476191  0.33256938    -0.07350
C3599       C  0.42682595  0.24405057  0.36789768     0.13510
C3600       C  0.40166597  0.22356142  0.38133914    -0.20840
C3601       C  0.37882139  0.20757896  0.35997390    -0.07360
C3602       C  0.38059009  0.21388964  0.32556075     0.13500
C3603       C  0.35462744  0.20311176  0.30083661    -0.24190
H3604       H  0.41537223  0.22092126  0.28835346     0.14790
H3605       H  0.40068320  0.21928450  0.40811169     0.14820
C3606       C  0.44826857  0.26315374  0.39178638    -0.24140
H3607       H  0.34937151  0.22361319  0.28324429     0.05030
H3608       H  0.33099749  0.19776292  0.31342849     0.08260
H3609       H  0.36330687  0.18133452  0.28634273     0.08260
H3610       H  0.43239836  0.27800237  0.40882494     0.08240
H3611       H  0.46470325  0.28062977  0.37853032     0.08240
H3612       H  0.46338518  0.24589119  0.40694364     0.05020
C3613       C  0.52631685  0.28106109  0.27459109    -0.20790
C3614       C  0.49279035  0.28551934  0.26526695    -0.07350
C3615       C  0.48768682  0.30624598  0.23711938     0.13510
C3616       C  0.51062726  0.33047027  0.22995198    -0.20840
C3617       C  0.54386420  0.32568489  0.23798895    -0.07360
C3618       C  0.55199893  0.30017375  0.26046214     0.13500
C3619       C  0.58742909  0.29231615  0.26868067    -0.24190
H3620       H  0.53376338  0.26086722  0.28976128     0.14790
H3621       H  0.50397872  0.34839079  0.21115596     0.14820
C3622       C  0.46605852  0.29604953  0.20797921    -0.24140
H3623       H  0.58945873  0.27087000  0.28576181     0.05030
H3624       H  0.59914972  0.31378304  0.28122467     0.08260
H3625       H  0.60116250  0.28614264  0.24547178     0.08260
H3626       H  0.46580080  0.26885945  0.20563289     0.08240
H3627       H  0.47624867  0.30500071  0.18374801     0.08240
H3628       H  0.44094507  0.30643456  0.20986616     0.05020
C3629       C  0.21664073  0.44074313  0.36695229    -0.20790
C3630       C  0.24707548  0.43308766  0.35159538    -0.07350
C3631       C  0.25682144  0.39920617  0.35411317     0.13510
C3632       C  0.23280642  0.37475359  0.36182201    -0.20840
C3633       C  0.20183887  0.38373236  0.37511163    -0.07360
C3634       C  0.19652883  0.41725052  0.38192356     0.13500
C3635       C  0.17229807  0.42861181  0.40814121    -0.24190
H3636       H  0.20828942  0.46559591  0.36895017     0.14790
H3637       H  0.23921267  0.34886466  0.35992871     0.14820
C3638       C  0.29222232  0.38848264  0.35571036    -0.24140
H3639       H  0.14762658  0.43206349  0.39694800     0.05030
H3640       H  0.18029280  0.45233436  0.41957202     0.08260
H3641       H  0.17115538  0.41069421  0.42895212     0.08260
H3642       H  0.30900286  0.40994759  0.35692795     0.08240
H3643       H  0.29816649  0.37199743  0.33426975     0.08240
H3644       H  0.29641613  0.37450484  0.37923627     0.05020
C3645       C  0.28612115  0.49558249  0.25976099    -0.20790
C3646       C  0.30122689  0.48889585  0.29047389    -0.07350
C3647       C  0.32684965  0.51032331  0.30113367     0.13510
C3648       C  0.34001350  0.53367801  0.27845347    -0.20840
C3649       C  0.32444062  0.54109391  0.24755864    -0.07360
C3650       C  0.29430774  0.52356027  0.24097709     0.13500
C3651       C  0.26840990  0.53499202  0.21641521    -0.24190
H3652       H  0.26551584  0.48033613  0.25176814     0.14790
H3653       H  0.36243091  0.54556610  0.28600783     0.14820
C3654       C  0.34064280  0.50991963  0.33613168    -0.24140
H3655       H  0.24328153  0.52771636  0.22492412     0.05030
H3656       H  0.27242854  0.52354094  0.19143962     0.08260
H3657       H  0.26801944  0.56230202  0.21508344     0.08260
H3658       H  0.36724856  0.50324108  0.33543227     0.08240
H3659       H  0.32728982  0.49265141  0.35273220     0.08240
H3660       H  0.33813083  0.53489367  0.34739326     0.05020
C3661       C  0.22905938  0.53357496  0.38591338    -0.20790
C3662       C  0.20910907  0.54844287  0.36118892    -0.07350
C3663       C  0.21555141  0.54033925  0.32726782     0.13510
C3664       C  0.23502457  0.51289412  0.31959832    -0.20840
C3665       C  0.25357852  0.49635655  0.34406709    -0.07360
C3666       C  0.25220705  0.50866256  0.37750675     0.13500
C3667       C  0.27178410  0.49320990  0.40539472    -0.24190
H3668       H  0.22493824  0.53948424  0.41208499     0.14790
H3669       H  0.23380152  0.50331834  0.29439622     0.14820
C3670       C  0.20147297  0.55957666  0.29836816    -0.24140
H3671       H  0.28698840  0.51242864  0.41793683     0.05030
H3672       H  0.28865307  0.47358081  0.39625721     0.08260
H3673       H  0.25465583  0.48222455  0.42404028     0.08260
H3674       H  0.19050497  0.58326768  0.30663045     0.08240
H3675       H  0.18267075  0.54454203  0.28497188     0.08240
H3676       H  0.22164944  0.56590919  0.28061700     0.05020
C3677       C  0.27382019  0.41056132  0.27295451    -0.20790
C3678       C  0.29752829  0.42700034  0.29260648    -0.07350
C3679       C  0.33039186  0.41537403  0.29156262     0.13510
C3680       C  0.33884210  0.38957833  0.26991823    -0.20840
C3681       C  0.31676903  0.37574549  0.24677732    -0.07360
C3682       C  0.28288351  0.38512924  0.25027244     0.13500
C3683       C  0.25578852  0.36864116  0.23052377    -0.24190
H3684       H  0.24838057  0.41889614  0.27397148     0.14790
H3685       H  0.36368547  0.38209520  0.27044803     0.14820
C3686       C  0.35761279  0.42921828  0.31315469    -0.24140
H3687       H  0.23117844  0.37338671  0.24193800     0.05030
H3688       H  0.25958441  0.34151945  0.23017607     0.08260
H3689       H  0.25495842  0.37853201  0.20469876     0.08260
H3690       H  0.34814337  0.44552605  0.33300873     0.08240
H3691       H  0.37559982  0.44281494  0.29734286     0.08240
H3692       H  0.37063832  0.40878698  0.32610207     0.05020
C3693       C  0.25680224  0.30724902  0.55894089    -0.20790
C3694       C  0.24426372  0.29406544  0.52864381    -0.07350
C3695       C  0.20984771  0.29141360  0.52494924     0.13510
C3696       C  0.18988849  0.30943357  0.54600789    -0.20840
C3697       C  0.20102081  0.32159496  0.57739520    -0.07360
C3698       C  0.23502116  0.31689559  0.58503208     0.13500
C3699       C  0.24853321  0.31791223  0.62010870    -0.24190
H3700       H  0.28321349  0.30750156  0.56331623     0.14790
H3701       H  0.16438441  0.31067997  0.53828592     0.14820
C3702       C  0.19290663  0.26697127  0.50172545    -0.24140
H3703       H  0.26118439  0.29419108  0.62544921     0.05030
H3704       H  0.22881329  0.32045342  0.63915963     0.08260
H3705       H  0.26686459  0.33810505  0.62274415     0.08260
H3706       H  0.21014069  0.24890997  0.49055347     0.08240
H3707       H  0.17937211  0.27942852  0.48135995     0.08240
H3708       H  0.17487091  0.25218376  0.51636081     0.05020
C3709       C  0.33261311  0.19047529  0.45674436    -0.20790
C3710       C  0.33446981  0.20176366  0.42361386    -0.07350
C3711       C  0.32368889  0.23454381  0.41720308     0.13510
C3712       C  0.31289555  0.25416848  0.44447404    -0.20840
C3713       C  0.30372737  0.23938632  0.47514486    -0.07360
C3714       C  0.31164418  0.20561707  0.47937529     0.13500
C3715       C  0.29391070  0.18310949  0.50345384    -0.24190
H3716       H  0.34185563  0.16628166  0.46331595     0.14790
H3717       H  0.30908985  0.28024664  0.44055583     0.14820
C3718       C  0.31946044  0.24821557  0.38246120    -0.24140
H3719       H  0.29235494  0.15757183  0.49329290     0.05030
H3720       H  0.26803646  0.19121925  0.50695266     0.08260
H3721       H  0.30729451  0.18167561  0.52747012     0.08260
H3722       H  0.31207915  0.22853928  0.36457836     0.08240
H3723       H  0.34252220  0.26050254  0.37419717     0.08240
H3724       H  0.29945383  0.26699570  0.38204181     0.05020
C3725       C  0.33587825  0.24773867  0.54109094    -0.20790
C3726       C  0.30119519  0.24837062  0.53796136    -0.07350
C3727       C  0.28200452  0.23275262  0.56342313     0.13510
C3728       C  0.29823368  0.21631899  0.58943877    -0.20840
C3729       C  0.33193139  0.20890656  0.58706474    -0.07360
C3730       C  0.35143928  0.22625916  0.56353171     0.13500
C3731       C  0.38830169  0.22185687  0.56035092    -0.24190
H3732       H  0.35087988  0.26019478  0.52247331     0.14790
H3733       H  0.28352382  0.20422004  0.60844027     0.14820
C3734       C  0.24538515  0.22652206  0.56115975    -0.24140
H3735       H  0.39461401  0.21344446  0.53462248     0.05030
H3736       H  0.39832766  0.20380171  0.57843471     0.08260
H3737       H  0.40076677  0.24585162  0.56489263     0.08260
H3738       H  0.23615745  0.22995284  0.53557543     0.08240
H3739       H  0.23191067  0.24255839  0.57916131     0.08240
H3740       H  0.23980329  0.20037328  0.56726798     0.05020
C3741       C  0.22621497  0.34365164  0.43982387    -0.20790
C3742       C  0.20948159  0.32201412  0.41814589    -0.07350
C3743       C  0.21957676  0.28856863  0.41720379     0.13510
C3744       C  0.24117999  0.27651464  0.44182442    -0.20840
C3745       C  0.25438864  0.29735907  0.46674734    -0.07360
C3746       C  0.24898776  0.33184268  0.46354692     0.13500
C3747       C  0.26528777  0.35666231  0.48636914    -0.24190
H3748       H  0.21950865  0.36951222  0.44036745     0.14790
H3749       H  0.24528561  0.25015038  0.44312144     0.14820
C3750       C  0.20708098  0.26463739  0.39123341    -0.24140
H3751       H  0.27809505  0.37556122  0.47102420     0.05030
H3752       H  0.28410062  0.34527688  0.50289725     0.08260
H3753       H  0.24628688  0.36896447  0.50216495     0.08260
H3754       H  0.19346735  0.27717144  0.37087041     0.08240
H3755       H  0.19083723  0.24602575  0.40324810     0.08240
H3756       H  0.22838121  0.25183877  0.37935964     0.05020
loop_ 
_geom_bond_atom_site_label_1 
_geom_bond_atom_site_label_2 
_geom_bond_distance 
_geom_bond_site_symmetry_2 
_ccdc_geom_bond_type 
C1            C2   1.376       .  D
C1         C3694   1.495       .  S
C1         C3745   1.516       .  S
C2         C3713   1.513       .  S
C2         C3726   1.510       .  S
C3            C4   1.388       .  D
C3         C3646   1.515       .  S
C3         C3678   1.502       .  S
C4         C3630   1.549       .  S
C4         C3665   1.523       .  S
C5            C6   1.401       .  D
C5         C3582   1.521       .  S
C5         C3614   1.542       .  S
C6         C3566   1.501       .  S
C6         C3598   1.516       .  S
C7            C8   1.384       .  D
C7         C3518   1.505       .  S
C7         C3550   1.518   1_554  S
C8         C3502   1.513   1_554  S
C8         C3534   1.541       .  S
C9           C10   1.386       .  D
C9         C3438   1.509       .  S
C9         C3489   1.500       .  S
C10        C3457   1.524       .  S
C10        C3473   1.520   1_655  S
C11          C12   1.387       .  D
C11        C3393   1.502       .  S
C11        C3422   1.528       .  S
C12        C3374   1.503       .  S
C12        C3406   1.540       .  S
C13          C14   1.390       .  D
C13        C3342   1.545       .  S
C13        C3358   1.514       .  S
C14        C3310   1.508       .  S
C14        C3326   1.502       .  S
C15          C16   1.380       .  D
C15        C3278   1.509       .  S
C15        C3294   1.488       .  S
C16        C3246   1.516       .  S
C16        C3262   1.518       .  S
C17          C18   1.394       .  D
C17        C3185   1.500       .  S
C17        C3198   1.555       .  S
C18        C3217   1.499       .  S
C18        C3230   1.527       .  S
C19          C20   1.377       .  D
C19        C3150   1.504       .  S
C19        C3169   1.512       .  S
C20        C3118   1.499       .  S
C20        C3134   1.512       .  S
C21          C22   1.369       .  D
C21        C3089   1.516       .  S
C21        C3105   1.500       .  S
C22        C3054   1.491       .  S
C22        C3070   1.489       .  S
C23          C24   1.368       .  D
C23        C2990   1.512       .  S
C23        C3006   1.495       .  S
C24        C3022   1.502       .  S
C24        C3038   1.501       .  S
C25          C26   1.396       .  D
C25        C2926   1.509   1_556  S
C25        C2942   1.526       .  S
C26        C2958   1.562   1_556  S
C26        C2974   1.524       .  S
C27          C28   1.402   1_554  D
C27        C2894   1.552       .  S
C27        C2910   1.519   1_554  S
C28        C2865   1.521   1_556  S
C28        C2878   1.549       .  S
C29          C30   1.419       .  D
C29        C2833   1.527       .  S
C29        C2849   1.559   1_655  S
C30        C2798   1.526       .  S
C30        C2814   1.557       .  S
C31          C32   1.410       .  D
C31        C2734   1.586       .  S
C31        C2750   1.537       .  S
C32        C2766   1.536       .  S
C32        C2782   1.527       .  S
C33          C34   1.404       .  D
C33        C2702   1.553       .  S
C33        C2718   1.534       .  S
C34        C2670   1.525       .  S
C34        C2686   1.527       .  S
C35          C36   1.388       .  D
C35        C2638   1.518       .  S
C35        C2657   1.522       .  S
C36        C2609   1.531       .  S
C36        C2622   1.537       .  S
N37          N38   1.314       .  A
N37          N43   1.309       .  A
N37         Mn66   2.173   1_556  S
N38          C45   1.354       .  A
N39          N41   1.311       .  A
N39          N40   1.317       .  A
N39         Mn55   2.188       .  S
N40          C46   1.352       .  A
N41          N42   1.318       .  A
N41         Mn66   2.179       .  S
N42          C46   1.353       .  A
N43          N44   1.315       .  A
N43         Mn55   2.157   1_556  S
N44          C45   1.347       .  A
C45        C2529   1.468       .  S
C46        C2497   1.478       .  S
N47          N53   1.320       .  A
N47          N48   1.334       .  A
N47         Mn77   2.268   1_554  S
N48          C56   1.366       .  A
N49          N50   1.315       .  A
N49          N51   1.317       .  A
N49         Mn55   2.184   1_556  S
N50          C57   1.345       .  A
N51          N52   1.324       .  A
N51         Mn77   2.221       .  S
N52          C57   1.358       .  A
N53          N54   1.311       .  A
N53         Mn55   2.164       .  S
N54          C56   1.339       .  A
Mn55        Cl79   2.494       .  S
C56        C2558   1.490       .  S
C57        C2590   1.471       .  S
N58          N59   1.316       .  A
N58          N64   1.312       .  A
N58         Mn66   2.178       .  S
N59          C67   1.352       .  A
N60          N62   1.311       .  A
N60          N61   1.320       .  A
N60         Mn78   2.199       .  S
N61          C68   1.354       .  A
N62          N63   1.319       .  A
N62         Mn66   2.179   1_556  S
N63          C68   1.353       .  A
N64          N65   1.321       .  A
N64         Mn78   2.195   1_554  S
N65          C67   1.354       .  A
Mn66        Cl79   2.583       .  S
C67        C2513   1.482       .  S
C68        C2478   1.489       .  S
N69          N70   1.326       .  A
N69          N75   1.318       .  A
N69         Mn77   2.235       .  S
N70          C80   1.360       .  A
N71          N72   1.313       .  A
N71          N73   1.322       .  A
N71         Mn78   2.191   1_554  S
N72          C81   1.343       .  A
N73          N74   1.331       .  A
N73         Mn77   2.248   1_554  S
N74          C81   1.362       .  A
N75          N76   1.312       .  A
N75         Mn78   2.171       .  S
N76          C80   1.344       .  A
Mn77        Cl79   2.588   1_556  S
Mn78        Cl79   2.495   1_556  S
C80        C2542   1.486       .  S
C81        C2577   1.487       .  S
N82          N83   1.317       .  A
N82          N88   1.311       .  A
N82        Mn111   2.170   1_556  S
N83          C90   1.349       .  A
N84          N86   1.312       .  A
N84          N85   1.324       .  A
N84        Mn100   2.209   1_554  S
N85          C91   1.357       .  A
N86          N87   1.314       .  A
N86        Mn111   2.169       .  S
N87          C91   1.347       .  A
N88          N89   1.323       .  A
N88        Mn100   2.200       .  S
N89          C90   1.354       .  A
C90        C2398   1.474       .  S
C91        C2350   1.484       .  S
N92          N98   1.321       .  A
N92          N93   1.331       .  A
N92        Mn122   2.257       .  S
N93         C101   1.363       .  A
N94          N95   1.312       .  A
N94          N96   1.319       .  A
N94        Mn100   2.174       .  S
N95         C102   1.342       .  A
N96          N97   1.326       .  A
N96        Mn122   2.237   1_556  S
N97         C102   1.362       .  A
N98          N99   1.315       .  A
N98        Mn100   2.187   1_554  S
N99         C101   1.344       .  A
Mn100      Cl124   2.495   1_556  S
C101       C2414   1.494       .  S
C102       C2462   1.481       .  S
N103        N104   1.317       .  A
N103        N109   1.309       .  A
N103       Mn111   2.169       .  S
N104        C112   1.353       .  A
N105        N107   1.310       .  A
N105        N106   1.319       .  A
N105       Mn123   2.177   1_556  S
N106        C113   1.352       .  A
N107        N108   1.311       .  A
N107       Mn111   2.163   1_556  S
N108        C113   1.349       .  A
N109        N110   1.317       .  A
N109       Mn123   2.189       .  S
N110        C112   1.353       .  A
Mn111      Cl124   2.582       .  S
C112       C2366   1.482       .  S
C113       C2382   1.467       .  S
N114        N115   1.329       .  A
N114        N120   1.319       .  A
N114       Mn122   2.241   1_556  S
N115        C125   1.360       .  A
N116        N117   1.309       .  A
N116        N118   1.320       .  A
N116       Mn123   2.166       .  S
N117        C126   1.338       .  A
N118        N119   1.329       .  A
N118       Mn122   2.247       .  S
N119        C126   1.364       .  A
N120        N121   1.315       .  A
N120       Mn123   2.181   1_556  S
N121        C125   1.344       .  A
Mn122      Cl124   2.584       .  S
Mn123      Cl124   2.492       .  S
C125       C2430   1.482       .  S
C126       C2446   1.484       .  S
C127        C128   1.410       .  D
C127       C2465   1.518       .  S
C127       C2913   1.541       .  S
C128       C2334   1.515       .  S
C128       C2830   1.553       .  S
C129        C130   1.421       .  D
C129       C2305   1.551       .  S
C129       C2449   1.518       .  S
C130       C2318   1.514       .  S
C130       C2673   1.562       .  S
N131        N132   1.327       .  A
N131        N137   1.320       .  A
N131       Mn160   2.240       .  S
N132        C139   1.360       .  A
N133        N135   1.317       .  A
N133        N134   1.314       .  A
N133       Mn149   2.171   1_455  S
N134        C140   1.342       .  A
N135        N136   1.327       .  A
N135       Mn160   2.241   1_455  S
N136        C140   1.362       .  A
N137        N138   1.314       .  A
N137       Mn149   2.184       .  S
N138        C139   1.344       .  A
C139       C2337   1.474       .  S
C140       C2286   1.480       .  S
N141        N147   1.312       .  A
N141        N142   1.317   1_655  A
N141       Mn171   2.180       .  S
N142        C150   1.353       .  A
N143        N144   1.317       .  A
N143        N145   1.310       .  A
N143       Mn149   2.181       .  S
N144        C151   1.354       .  A
N145        N146   1.315       .  A
N145       Mn171   2.163       .  S
N146        C151   1.348       .  A
N147        N148   1.317   1_655  A
N147       Mn149   2.179       .  S
N148        C150   1.349       .  A
Mn149      Cl173   2.494       .  S
C150       C2222   1.476       .  S
C151       C2190   1.474       .  S
N152        N153   1.326       .  A
N152        N158   1.318       .  A
N152       Mn160   2.226   1_455  S
N153        C161   1.361       .  A
N154        N156   1.319       .  A
N154        N155   1.311       .  A
N154       Mn172   2.169       .  S
N155        C162   1.341       .  A
N156        N157   1.332       .  A
N156       Mn160   2.249       .  S
N157        C162   1.362       .  A
N158        N159   1.311       .  A
N158       Mn172   2.177   1_455  S
N159        C161   1.343       .  A
Mn160      Cl173   2.592       .  S
C161       C2254   1.479       .  S
C162       C2270   1.484       .  S
N163        N164   1.317       .  A
N163        N169   1.313       .  A
N163       Mn171   2.182       .  S
N164        C174   1.351       .  A
N165        N166   1.318       .  A
N165        N167   1.309   1_455  A
N165       Mn172   2.182   1_455  S
N166        C175   1.353       .  A
N167        N168   1.317   1_655  A
N167       Mn171   2.170       .  S
N168        C175   1.351       .  A
N169        N170   1.322       .  A
N169       Mn172   2.201       .  S
N170        C174   1.355       .  A
Mn171      Cl173   2.571       .  S
Mn172      Cl173   2.491       .  S
C174       C2238   1.480       .  S
C175       C2206   1.480       .  S
C176        C177   1.389       .  D
C176       C2289   1.506       .  S
C176       C2846   1.516       .  S
C177       C2545   1.508       .  S
C177       C3505   1.525       .  S
C178        C179   1.387       .  D
C178       C2174   1.516       .  S
C178       C2273   1.515       .  S
C179       C2161   1.526       .  S
C179       C2433   1.510       .  S
C180        C181   1.404       .  D
C180       C2142   1.541       .  S
C180       C2257   1.508       .  S
C181       C2593   1.510       .  S
C181       C2945   1.536       .  S
C182        C183   1.403       .  D
C182       C2126   1.521       .  S
C182       C3486   1.569       .  S
C183       C2417   1.526       .  S
C183       C2897   1.512       .  S
N184        N185   1.323       .  A
N184        N190   1.316       .  A
N184       Mn213   2.222       .  S
N185        C192   1.359       .  A
N186        N188   1.317       .  A
N186        N187   1.312   1_655  A
N186       Mn202   2.152       .  S
N187        C193   1.339       .  A
N188        N189   1.330   1_655  A
N188       Mn213   2.267       .  S
N189        C193   1.367       .  A
N190        N191   1.315       .  A
N190       Mn202   2.181       .  S
N191        C192   1.346       .  A
C192       C2321   1.475       .  S
C193       C2110   1.483       .  S
N194        N200   1.312   1_455  A
N194        N195   1.320       .  A
N194       Mn224   2.205   1_455  S
N195        C203   1.356       .  A
N196        N197   1.318       .  A
N196        N198   1.313       .  A
N196       Mn202   2.161       .  S
N197        C204   1.345       .  A
N198        N199   1.323       .  A
N198       Mn224   2.221       .  S
N199        C204   1.358       .  A
N200        N201   1.321   1_655  A
N200       Mn202   2.180       .  S
N201        C203   1.350       .  A
Mn202      Cl226   2.516       .  S
C203       C2062   1.486       .  S
C204       C2030   1.475       .  S
N205        N206   1.326   1_655  A
N205        N211   1.320   1_655  A
N205       Mn213   2.228       .  S
N206        C214   1.357       .  A
N207        N209   1.320       .  A
N207        N208   1.318       .  A
N207       Mn225   2.197       .  S
N208        C215   1.348       .  A
N209        N210   1.327       .  A
N209       Mn213   2.239       .  S
N210        C215   1.359       .  A
N211        N212   1.315       .  A
N211       Mn225   2.192   1_455  S
N212        C214   1.344       .  A
Mn213      Cl226   2.575       .  S
C214       C2097   1.471       .  S
C215       C2129   1.487       .  S
N216        N217   1.316       .  A
N216        N222   1.313       .  A
N216       Mn224   2.183       .  S
N217        C227   1.349       .  A
N218        N219   1.323       .  A
N218        N220   1.314       .  A
N218       Mn225   2.206   1_455  S
N219        C228   1.354       .  A
N220        N221   1.320       .  A
N220       Mn224   2.206   1_455  S
N221        C228   1.354       .  A
N222        N223   1.324       .  A
N222       Mn225   2.214       .  S
N223        C227   1.359       .  A
Mn224      Cl226   2.558       .  S
Mn225      Cl226   2.514       .  S
C227       C2078   1.493       .  S
C228       C2046   1.486       .  S
N229        N230   1.312       .  A
N229        N235   1.311       .  A
N229       Mn258   2.163       .  S
N230        C237   1.346       .  A
N231        N233   1.313       .  A
N231        N232   1.323       .  A
N231       Mn247   2.216   1_554  S
N232        C238   1.358       .  A
N233        N234   1.322       .  A
N233       Mn258   2.202   1_554  S
N234        C238   1.354       .  A
N235        N236   1.326       .  A
N235       Mn247   2.215       .  S
N236        C237   1.360       .  A
C237       C1950   1.490       .  S
C238       C1921   1.500       .  S
N239        N245   1.320       .  A
N239        N240   1.326       .  A
N239       Mn269   2.229   1_554  S
N240        C248   1.357       .  A
N241        N242   1.316       .  A
N241        N243   1.321       .  A
N241       Mn247   2.192       .  S
N242        C249   1.346       .  A
N243        N244   1.324       .  A
N243       Mn269   2.226       .  S
N244        C249   1.357       .  A
N245        N246   1.316       .  A
N245       Mn247   2.193   1_554  S
N246        C248   1.345       .  A
Mn247      Cl271   2.506       .  S
C248       C1985   1.473       .  S
C249       C2014   1.477       .  S
N250        N251   1.313       .  A
N250        N256   1.308       .  A
N250       Mn258   2.164   1_554  S
N251        C259   1.351       .  A
N252        N254   1.312       .  A
N252        N253   1.317       .  A
N252       Mn270   2.165   1_556  S
N253        C260   1.344       .  A
N254        N255   1.323       .  A
N254       Mn258   2.217       .  S
N255        C260   1.358       .  A
N256        N257   1.312       .  A
N256       Mn270   2.146       .  S
N257        C259   1.346       .  A
Mn258      Cl271   2.565       .  S
C259       C1937   1.459       .  S
C260       C1902   1.466       .  S
N261        N262   1.330       .  A
N261        N267   1.315       .  A
N261       Mn269   2.233       .  S
N262        C272   1.364       .  A
N263        N264   1.313       .  A
N263        N265   1.318       .  A
N263       Mn270   2.171       .  S
N264        C273   1.341       .  A
N265        N266   1.327       .  A
N265       Mn269   2.233   1_554  S
N266        C273   1.360       .  A
N267        N268   1.305       .  A
N267       Mn270   2.147   1_556  S
N268        C272   1.337       .  A
Mn269      Cl271   2.587       .  S
Mn270      Cl271   2.489   1_554  S
C272       C1966   1.478       .  S
C273       C2001   1.473       .  S
N274        N275   1.319       .  A
N274        N280   1.314       .  A
N274       Mn303   2.204       .  S
N275        C282   1.353       .  A
N276        N278   1.309       .  A
N276        N277   1.319   1_565  A
N276       Mn292   2.181       .  S
N277        C283   1.353       .  A
N278        N279   1.315   1_565  A
N278       Mn303   2.170       .  S
N279        C283   1.350       .  A
N280        N281   1.324       .  A
N280       Mn292   2.207       .  S
N281        C282   1.354       .  A
C282       C1822   1.485       .  S
C283       C1790   1.479       .  S
N284        N290   1.320       .  A
N284        N285   1.325       .  A
N284       Mn314   2.243   1_545  S
N285        C293   1.361       .  A
N286        N287   1.312       .  A
N286        N288   1.318       .  A
N286       Mn292   2.170       .  S
N287        C294   1.341       .  A
N288        N289   1.332       .  A
N288       Mn314   2.253       .  S
N289        C294   1.364       .  A
N290        N291   1.317       .  A
N290       Mn292   2.189   1_545  S
N291        C293   1.346       .  A
Mn292      Cl316   2.507       .  S
C293       C1838   1.479       .  S
C294       C1886   1.483       .  S
N295        N296   1.323   1_565  A
N295        N301   1.312       .  A
N295       Mn303   2.204       .  S
N296        C304   1.358       .  A
N297        N299   1.309       .  A
N297        N298   1.325       .  A
N297       Mn315   2.196       .  S
N298        C305   1.359       .  A
N299        N300   1.310       .  A
N299       Mn303   2.165       .  S
N300        C305   1.345       .  A
N301        N302   1.318   1_565  A
N301       Mn315   2.194       .  S
N302        C304   1.350       .  A
Mn303      Cl316   2.565       .  S
C304       C1806   1.493       .  S
C305       C1774   1.484       .  S
N306        N307   1.328       .  A
N306        N312   1.320       .  A
N306       Mn314   2.240       .  S
N307        C317   1.360       .  A
N308        N309   1.313       .  A
N308        N310   1.317       .  A
N308       Mn315   2.169   1_545  S
N309        C318   1.341       .  A
N310        N311   1.328       .  A
N310       Mn314   2.252   1_545  S
N311        C318   1.364       .  A
N312        N313   1.316       .  A
N312       Mn315   2.198       .  S
N313        C317   1.347       .  A
Mn314      Cl316   2.590       .  S
Mn315      Cl316   2.504       .  S
C317       C1854   1.482       .  S
C318       C1870   1.476       .  S
C319        C320   1.404       .  D
C319       C1889   1.516       .  S
C319       C2785   1.537       .  S
C320       C1758   1.514       .  S
C320       C2977   1.545       .  S
C321        C322   1.381       .  D
C321       C1742   1.519       .  S
C321       C1873   1.503       .  S
C322       C1969   1.503       .  S
C322       C2881   1.504       .  S
C323        C324   1.400       .  D
C323       C1710   1.542       .  S
C323       C1726   1.521       .  S
C324       C1694   1.531       .  S
C324       C1857   1.513       .  S
N325        N326   1.326       .  A
N325        N331   1.319       .  A
N325       Mn354   2.238   1_556  S
N326        C333   1.361       .  A
N327        N329   1.320       .  A
N327        N328   1.312       .  A
N327       Mn343   2.173       .  S
N328        C334   1.343       .  A
N329        N330   1.328       .  A
N329       Mn354   2.243       .  S
N330        C334   1.361       .  A
N331        N332   1.315       .  A
N331       Mn343   2.185   1_556  S
N332        C333   1.344       .  A
C333       C1761   1.480       .  S
C334       C1681   1.491       .  S
N335        N341   1.312       .  A
N335        N336   1.320       .  A
N335       Mn365   2.211       .  S
N336        C344   1.355       .  A
N337        N338   1.316       .  A
N337        N339   1.311       .  A
N337       Mn343   2.189   1_556  S
N338        C345   1.350       .  A
N339        N340   1.324       .  A
N339       Mn365   2.197   1_556  S
N340        C345   1.357       .  A
N341        N342   1.324       .  A
N341       Mn343   2.201       .  S
N342        C344   1.356       .  A
Mn343      Cl367   2.499       .  S
C344       C1614   1.500       .  S
C345       C1630   1.493       .  S
N346        N347   1.329       .  A
N346        N352   1.319       .  A
N346       Mn354   2.255       .  S
N347        C355   1.363       .  A
N348        N350   1.317       .  A
N348        N349   1.313       .  A
N348       Mn366   2.172   1_556  S
N349        C356   1.343       .  A
N350        N351   1.327       .  A
N350       Mn354   2.237   1_556  S
N351        C356   1.362       .  A
N352        N353   1.317       .  A
N352       Mn366   2.189       .  S
N353        C355   1.345       .  A
Mn354      Cl367   2.589       .  S
C355       C1662   1.485       .  S
C356       C1729   1.480       .  S
N357        N358   1.318       .  A
N357        N363   1.313       .  A
N357       Mn365   2.200   1_556  S
N358        C368   1.355       .  A
N359        N360   1.317       .  A
N359        N361   1.312       .  A
N359       Mn366   2.180       .  S
N360        C369   1.350       .  A
N361        N362   1.319       .  A
N361       Mn365   2.185       .  S
N362        C369   1.353       .  A
N363        N364   1.321       .  A
N363       Mn366   2.186   1_556  S
N364        C368   1.350       .  A
Mn365      Cl367   2.572       .  S
Mn366      Cl367   2.504       .  S
C368       C1646   1.480       .  S
C369       C1598   1.477       .  S
C370        C371   1.398       .  D
C370       C1678   1.517       .  S
C370       C2961   1.510       .  S
C371       C1582   1.515       .  S
C371       C3377   1.555       .  S
C372        C373   1.403       .  D
C372       C2017   1.517       .  S
C372       C3553   1.552       .  S
C373       C1841   1.530       .  S
C373       C2769   1.521       .  S
C374        C375   1.382       .  D
C374       C1566   1.509       .  S
C374       C2625   1.519       .  S
C375       C1553   1.513       .  S
C375       C1665   1.520       .  S
N376        N377   1.326       .  A
N376        N382   1.321       .  A
N376       Mn405   2.239       .  S
N377        C384   1.359       .  A
N378        N380   1.317       .  A
N378        N379   1.311   1_565  A
N378       Mn394   2.165       .  S
N379        C385   1.342       .  A
N380        N381   1.330   1_565  A
N380       Mn405   2.244       .  S
N381        C385   1.363       .  A
N382        N383   1.317       .  A
N382       Mn394   2.198       .  S
N383        C384   1.347       .  A
C384       C1585   1.482       .  S
C385       C1534   1.482       .  S
N386        N392   1.313       .  A
N386        N387   1.321       .  A
N386       Mn416   2.201   1_545  S
N387        C395   1.354       .  A
N388        N389   1.317       .  A
N388        N390   1.311       .  A
N388       Mn394   2.179       .  S
N389        C396   1.350       .  A
N390        N391   1.319       .  A
N390       Mn416   2.186       .  S
N391        C396   1.354       .  A
N392        N393   1.321       .  A
N392       Mn394   2.197   1_545  S
N393        C395   1.353       .  A
Mn394      Cl418   2.498       .  S
C395       C1489   1.489       .  S
C396       C1454   1.485       .  S
N397        N398   1.326   1_565  A
N397        N403   1.317       .  A
N397       Mn405   2.226       .  S
N398        C406   1.361       .  A
N399        N401   1.319       .  A
N399        N400   1.312       .  A
N399       Mn417   2.167       .  S
N400        C407   1.341       .  A
N401        N402   1.330       .  A
N401       Mn405   2.250       .  S
N402        C407   1.363       .  A
N403        N404   1.310   1_565  A
N403       Mn417   2.170       .  S
N404        C406   1.342       .  A
Mn405      Cl418   2.584       .  S
C406       C1518   1.477       .  S
C407       C1569   1.484       .  S
N408        N409   1.319       .  A
N408        N414   1.312       .  A
N408       Mn416   2.195       .  S
N409        C419   1.354       .  A
N410        N411   1.318   1_565  A
N410        N412   1.309       .  A
N410       Mn417   2.173       .  S
N411        C420   1.351       .  A
N412        N413   1.316   1_565  A
N412       Mn416   2.182       .  S
N413        C420   1.352       .  A
N414        N415   1.319       .  A
N414       Mn417   2.185       .  S
N415        C419   1.352       .  A
Mn416      Cl418   2.578       .  S
Mn417      Cl418   2.494       .  S
C419       C1505   1.481       .  S
C420       C1470   1.477       .  S
N421        N422   1.321       .  A
N421        N427   1.312       .  A
N421       Mn450   2.192       .  S
N422        C429   1.356       .  A
N423        N425   1.310       .  A
N423        N424   1.320       .  A
N423       Mn439   2.182   1_545  S
N424        C430   1.353       .  A
N425        N426   1.313       .  A
N425       Mn450   2.161   1_545  S
N426        C430   1.347       .  A
N427        N428   1.316       .  A
N427       Mn439   2.183       .  S
N428        C429   1.350       .  A
C429       C1377   1.482       .  S
C430       C1342   1.464       .  S
N431        N437   1.316       .  A
N431        N432   1.323       .  A
N431       Mn461   2.215   1_545  S
N432        C440   1.357       .  A
N433        N434   1.313       .  A
N433        N435   1.319       .  A
N433       Mn439   2.171       .  S
N434        C441   1.340       .  A
N435        N436   1.329       .  A
N435       Mn461   2.248       .  S
N436        C441   1.363       .  A
N437        N438   1.314       .  A
N437       Mn439   2.177   1_545  S
N438        C440   1.347       .  A
Mn439      Cl463   2.497       .  S
C440       C1390   1.479       .  S
C441       C1438   1.478       .  S
N442        N443   1.321       .  A
N442        N448   1.312       .  A
N442       Mn450   2.186   1_545  S
N443        C451   1.353       .  A
N444        N446   1.312       .  A
N444        N445   1.324       .  A
N444       Mn462   2.216       .  S
N445        C452   1.359       .  A
N446        N447   1.314       .  A
N446       Mn450   2.161       .  S
N447        C452   1.348       .  A
N448        N449   1.321       .  A
N448       Mn462   2.208   1_545  S
N449        C451   1.355       .  A
Mn450      Cl463   2.571       .  S
C451       C1358   1.495       .  S
C452       C1326   1.484       .  S
N453        N454   1.330       .  A
N453        N459   1.321       .  A
N453       Mn461   2.245       .  S
N454        C464   1.362       .  A
N455        N456   1.315       .  A
N455        N457   1.318       .  A
N455       Mn462   2.194   1_545  S
N456        C465   1.348       .  A
N457        N458   1.323       .  A
N457       Mn461   2.210   1_545  S
N458        C465   1.355       .  A
N459        N460   1.313       .  A
N459       Mn462   2.188       .  S
N460        C464   1.343       .  A
Mn461      Cl463   2.584       .  S
Mn462      Cl463   2.499       .  S
C464       C1409   1.496       .  S
C465       C1422   1.475       .  S
N466        N467   1.320       .  A
N466        N472   1.312       .  A
N466       Mn495   2.196   1_455  S
N467        C474   1.354       .  A
N468        N470   1.308       .  A
N468        N469   1.325       .  A
N468       Mn484   2.195       .  S
N469        C475   1.357       .  A
N470        N471   1.309       .  A
N470       Mn495   2.148       .  S
N471        C475   1.344       .  A
N472        N473   1.322       .  A
N472       Mn484   2.205   1_455  S
N473        C474   1.355       .  A
C474       C1246   1.492       .  S
C475       C1198   1.473       .  S
N476        N482   1.319       .  A
N476        N477   1.326       .  A
N476       Mn506   2.227       .  S
N477        C485   1.360       .  A
N478        N479   1.314   1_655  A
N478        N480   1.319       .  A
N478       Mn484   2.170       .  S
N479        C486   1.341       .  A
N480        N481   1.329   1_655  A
N480       Mn506   2.247       .  S
N481        C486   1.361       .  A
N482        N483   1.310       .  A
N482       Mn484   2.175       .  S
N483        C485   1.343       .  A
Mn484      Cl508   2.502       .  S
C485       C1262   1.473       .  S
C486       C1313   1.477       .  S
N487        N488   1.320       .  A
N487        N493   1.312       .  A
N487       Mn495   2.190       .  S
N488        C496   1.353       .  A
N489        N491   1.309       .  A
N489        N490   1.318       .  A
N489       Mn507   2.176   1_455  S
N490        C497   1.354       .  A
N491        N492   1.309       .  A
N491       Mn495   2.143   1_455  S
N492        C497   1.344       .  A
N493        N494   1.321       .  A
N493       Mn507   2.207       .  S
N494        C496   1.356       .  A
Mn495      Cl508   2.559       .  S
C496       C1230   1.494       .  S
C497       C1217   1.463       .  S
N498        N499   1.325       .  A
N498        N504   1.320       .  A
N498       Mn506   2.233   1_455  S
N499        C509   1.359       .  A
N500        N501   1.313       .  A
N500        N502   1.318       .  A
N500       Mn507   2.162       .  S
N501        C510   1.340       .  A
N502        N503   1.329       .  A
N502       Mn506   2.249       .  S
N503        C510   1.362       .  A
N504        N505   1.317       .  A
N504       Mn507   2.202   1_455  S
N505        C509   1.348       .  A
Mn506      Cl508   2.582       .  S
Mn507      Cl508   2.504       .  S
C509       C1278   1.487       .  S
C510       C1294   1.477       .  S
C511        C512   1.390       .  D
C511       C1182   1.509       .  S
C511       C2654   1.510       .  S
C512       C1265   1.505       .  S
C512       C3454   1.539       .  S
N513        N514   1.317       .  A
N513        N519   1.310       .  A
N513       Mn542   2.188   1_545  S
N514        C521   1.353       .  A
N515        N517   1.311       .  A
N515        N516   1.321       .  A
N515       Mn531   2.183       .  S
N516        C522   1.352       .  A
N517        N518   1.319       .  A
N517       Mn542   2.202       .  S
N518        C522   1.355       .  A
N519        N520   1.321       .  A
N519       Mn531   2.190   1_545  S
N520        C521   1.354       .  A
C521       C1102   1.490       .  S
C522       C1070   1.492       .  S
N523        N529   1.318       .  A
N523        N524   1.327       .  A
N523       Mn553   2.230       .  S
N524        C532   1.361       .  A
N525        N526   1.312   1_565  A
N525        N527   1.319       .  A
N525       Mn531   2.163       .  S
N526        C533   1.339       .  A
N527        N528   1.328   1_565  A
N527       Mn553   2.248       .  S
N528        C533   1.362       .  A
N529        N530   1.311       .  A
N529       Mn531   2.177       .  S
N530        C532   1.343       .  A
Mn531      Cl555   2.496       .  S
C532       C1134   1.481       .  S
C533       C1185   1.474       .  S
N534        N535   1.316       .  A
N534        N540   1.311       .  A
N534       Mn542   2.176       .  S
N535        C543   1.352       .  A
N536        N538   1.312       .  A
N536        N537   1.318   1_565  A
N536       Mn554   2.166       .  S
N537        C544   1.347       .  A
N538        N539   1.317   1_565  A
N538       Mn542   2.197       .  S
N539        C544   1.357       .  A
N540        N541   1.317       .  A
N540       Mn554   2.175       .  S
N541        C543   1.350       .  A
Mn542      Cl555   2.568       .  S
C543       C1118   1.474       .  S
C544       C1086   1.473       .  S
N545        N546   1.329   1_565  A
N545        N551   1.317       .  A
N545       Mn553   2.236       .  S
N546        C556   1.363       .  A
N547        N548   1.313       .  A
N547        N549   1.319       .  A
N547       Mn554   2.167       .  S
N548        C557   1.340       .  A
N549        N550   1.328       .  A
N549       Mn553   2.245       .  S
N550        C557   1.361       .  A
N551        N552   1.310   1_565  A
N551       Mn554   2.172       .  S
N552        C556   1.343       .  A
Mn553      Cl555   2.593       .  S
Mn554      Cl555   2.492       .  S
C556       C1153   1.490       .  S
C557       C1169   1.476       .  S
C558        C559   1.384       .  D
C558       C1022   1.540       .  S
C558       C1054   1.503       .  S
C559       C1038   1.505       .  S
C559       C1166   1.519       .  S
N560        N561   1.328       .  A
N560        N566   1.319       .  A
N560       Mn589   2.236       .  S
N561        C568   1.361       .  A
N562        N564   1.322       .  A
N562        N563   1.317   1_655  A
N562       Mn578   2.194       .  S
N563        C569   1.344       .  A
N564        N565   1.328   1_655  A
N564       Mn589   2.251       .  S
N565        C569   1.361       .  A
N566        N567   1.309       .  A
N566       Mn578   2.173       .  S
N567        C568   1.341       .  A
C568       C1057   1.481       .  S
C569        C990   1.482       .  S
N570        N576   1.311       .  A
N570        N571   1.317       .  A
N570       Mn600   2.173   1_455  S
N571        C579   1.351       .  A
N572        N573   1.325       .  A
N572        N574   1.311       .  A
N572       Mn578   2.227       .  S
N573        C580   1.360       .  A
N574        N575   1.320       .  A
N574       Mn600   2.186       .  S
N575        C580   1.353       .  A
N576        N577   1.321       .  A
N576       Mn578   2.200   1_455  S
N577        C579   1.355       .  A
Mn578      Cl602   2.494       .  S
C579        C942   1.486       .  S
C580        C926   1.503       .  S
N581        N582   1.332   1_655  A
N581        N587   1.317       .  A
N581       Mn589   2.256       .  S
N582        C590   1.366       .  A
N583        N585   1.317       .  A
N583        N584   1.315       .  A
N583       Mn601   2.174       .  S
N584        C591   1.343       .  A
N585        N586   1.328       .  A
N585       Mn589   2.251       .  S
N586        C591   1.364       .  A
N587        N588   1.311   1_655  A
N587       Mn601   2.168       .  S
N588        C590   1.343       .  A
Mn589      Cl602   2.596       .  S
C590        C974   1.498       .  S
C591       C1006   1.477       .  S
N592        N593   1.313       .  A
N592        N598   1.310       .  A
N592       Mn600   2.159       .  S
N593        C603   1.349       .  A
N594        N595   1.317   1_655  A
N594        N596   1.311   1_655  A
N594       Mn601   2.173       .  S
N595        C604   1.350       .  A
N596        N597   1.314       .  A
N596       Mn600   2.173   1_455  S
N597        C604   1.351       .  A
N598        N599   1.315       .  A
N598       Mn601   2.162       .  S
N599        C603   1.347       .  A
Mn600      Cl602   2.574       .  S
Mn601      Cl602   2.493       .  S
C603        C961   1.453       .  S
C604        C913   1.469       .  S
C605        C606   1.397       .  D
C605       C1009   1.528       .  S
C605       C2721   1.531       .  S
C606       C1137   1.504       .  S
C606       C2641   1.543       .  S
C607        C608   1.379       .  D
C607       C1406   1.506       .  S
C607       C2737   1.508       .  S
C608        C894   1.511       .  S
C608        C993   1.506       .  S
C609        C610   1.374       .  D
C609        C878   1.513       .  S
C609       C1150   1.516       .  S
C610       C1297   1.500       .  S
C610       C2817   1.503       .  S
C611        C612   1.377       .  D
C611        C977   1.527       .  S
C611       C2705   1.511       .  S
C612       C1441   1.508       .  S
C612       C3425   1.518       .  S
C613        C614   1.382       .  D
C613       C1393   1.501       .  S
C613       C3390   1.532       .  S
C614       C1310   1.515       .  S
C614       C3470   1.497       .  S
C615        C616   1.433       .  D
C615       C1281   1.530       .  S
C615       C2801   1.573       .  S
C616       C1425   1.503       .  S
C616       C2753   1.572       .  S
C617        C618   1.394       .  D
C617       C1329   1.519       .  S
C617       C3281   1.504       .  S
C618        C862   1.541       .  S
C618       C1825   1.514       .  S
C619        C620   1.384       .  D
C619       C2225   1.510       .  S
C619       C3009   1.503       .  S
C620       C1214   1.489       .  S
C620       C3697   1.517       .  S
C621        C622   1.388       .  D
C621       C1201   1.511       .  S
C621       C3345   1.508       .  S
C622       C2081   1.515       .  S
C622       C3166   1.524       .  S
C623        C624   1.368       .  D
C623       C1345   1.496       .  S
C623       C3710   1.505       .  S
C624       C1486   1.513       .  S
C624       C3601   1.488       .  S
C625        C626   1.386       .  D
C625       C1374   1.504       .  S
C625       C3297   1.525       .  S
C626       C1457   1.500       .  S
C626       C3214   1.491       .  S
C627        C628   1.374       .  D
C627       C1249   1.502       .  S
C627       C3742   1.503       .  S
C628       C2049   1.514       .  S
C628       C3633   1.505       .  S
C629        C630   1.382       .  D
C629       C1361   1.509       .  S
C629       C3729   1.485       .  S
C630       C1793   1.490       .  S
C630       C3057   1.532       .  S
C631        C632   1.397       .  D
C631       C1233   1.511       .  S
C631       C3361   1.542       .  S
C632        C846   1.504       .  S
C632       C2193   1.494       .  S
C633        C634   1.392       .  D
C633       C1982   1.506       .  S
C633       C3521   1.550       .  S
C634       C1537   1.512       .  S
C634       C3409   1.495       .  S
C635        C636   1.407       .  D
C635       C1998   1.516       .  S
C635       C2862   1.547       .  S
C636       C1521   1.512       .  S
C636       C2606   1.541       .  S
C637        C638   1.369       .  D
C637       C2481   1.509       .  S
C637       C3025   1.507       .  S
C638       C1953   1.505       .  S
C638       C3102   1.491       .  S
C639        C640   1.387       .  D
C639       C1905   1.540       .  S
C639       C3086   1.507       .  S
C640        C830   1.508       .  S
C640       C2401   1.503       .  S
C641        C642   1.391       .  D
C641       C1502   1.503       .  S
C641       C3233   1.534       .  S
C642        C814   1.509       .  S
C642       C1073   1.508       .  S
C643        C644   1.396       .  D
C643       C1473   1.505       .  S
C643       C3569   1.548       .  S
C644       C1105   1.509       .  S
C644       C3329   1.500       .  S
C645        C646   1.390       .  D
C645        C782   1.526       .  S
C645       C2385   1.484       .  S
C646        C798   1.505       .  S
C646       C1649   1.523       .  S
C647        C648   1.388       .  D
C647       C2113   1.503       .  S
C647       C2689   1.519       .  S
C648       C2561   1.519       .  S
C648       C2929   1.523       .  S
C649        C650   1.382       .  D
C649       C2574   1.511       .  S
C649       C3537   1.496       .  S
C650       C2094   1.509       .  S
C650       C3441   1.535       .  S
C651        C652   1.393       .  D
C651       C2526   1.499       .  S
C651       C3041   1.541       .  S
C652        C766   1.506       .  S
C652       C1633   1.516       .  S
C653        C654   1.388       .  D
C653       C2065   1.525       .  S
C653       C3662   1.513       .  S
C654        C910   1.491       .  S
C654       C3249   1.526       .  S
C655        C656   1.373       .  D
C655       C2033   1.515       .  S
C655       C3153   1.488       .  S
C656        C750   1.517       .  S
C656        C958   1.483       .  S
C657        C658   1.391       .  D
C657        C718   1.502       .  S
C657        C929   1.521       .  S
C658        C734   1.534       .  S
C658       C2241   1.502       .  S
C659        C660   1.386       .  D
C659       C1089   1.497       .  S
C659       C3313   1.537       .  S
C660       C1809   1.515       .  S
C660       C3073   1.492       .  S
C661        C662   1.397       .  D
C661        C686   1.521       .  S
C661       C1777   1.512       .  S
C662        C702   1.535       .  S
C662       C1121   1.489       .  S
C663        C664   1.364       .  D
C663        C945   1.500       .  S
C663       C3265   1.501       .  S
C664       C2209   1.496       .  S
C664       C2993   1.485       .  S
C665        C666   1.391       .  D
C665       C2145   1.529       .  S
C665       C2177   1.541       .  S
C666        C897   1.516       .  S
C666       C1025   1.530       .  S
C667        C668   1.394       .  D
C667       C1697   1.527       .  S
C667       C1745   1.516       .  S
C668        C881   1.521       .  S
C668       C1041   1.530       .  S
C669        C670   1.384       .  D
C669       C2158   1.524   1_554  S
C669       C2302   1.538       .  S
C670       C1550   1.514       .  S
C670       C1713   1.540   1_554  S
C671        C672   1.387       .  D
C671        C769   1.514       .  S
C671        C801   1.526       .  S
C672        C689   1.518       .  S
C672        C865   1.512       .  S
C673        C674   1.385       .  D
C673        C785   1.514       .  S
C673        C833   1.549       .  S
C674        C737   1.500       .  S
C674        C849   1.497       .  S
C675        C676   1.377       .  D
C675        C705   1.502       .  S
C675        C817   1.528       .  S
C676        C721   1.513       .  S
C676        C753   1.511       .  S
C677        C678   1.359       .  D
C677       C1934   1.479       .  S
C677       C3617   1.484       .  S
C678       C2353   1.502       .  S
C678       C3121   1.490       .  S
C679        C680   1.394       .  D
C679       C2369   1.509       .  S
C679       C3137   1.511       .  S
C680       C1601   1.505       .  S
C680       C3182   1.529       .  S
C681        C682   1.389       .  D
C681       C2494   1.487       .  S
C681       C3649   1.545       .  S
C682       C1617   1.527       .  S
C682       C3201   1.490       .  S
C683        C684   1.391       .  D
C683       C2510   1.496       .  S
C683       C3681   1.532       .  S
C684       C1918   1.518       .  S
C684       C3585   1.506       .  S
C685        C686   1.411       .  A
C685        C690   1.395       .  A
C685        H692   1.080       .  S
C686        C687   1.427       .  A
C687        C688   1.422       .  A
C687        C694   1.504       .  S
C688        C689   1.417       .  A
C688        H693   1.080       .  S
C689        C690   1.414       .  A
C690        C691   1.517       .  S
C691        H695   1.112       .  S
C691        H696   1.098       .  S
C691        H697   1.102       .  S
C694        H698   1.110       .  S
C694        H699   1.102       .  S
C694        H700   1.111       .  S
C701        C702   1.419       .  A
C701        C706   1.424       .  A
C701        H708   1.078       .  S
C702        C703   1.445       .  A
C703        C704   1.376       .  A
C703        C710   1.514       .  S
C704        C705   1.383       .  A
C704        H709   1.084       .  S
C705        C706   1.417       .  A
C706        C707   1.504       .  S
C707        H711   1.111       .  S
C707        H712   1.105       .  S
C707        H713   1.110       .  S
C710        H714   1.103       .  S
C710        H715   1.098       .  S
C710        H716   1.111       .  S
C717        C718   1.403       .  A
C717        C722   1.406       .  A
C717        H724   1.080       .  S
C718        C719   1.421       .  A
C719        C720   1.400       .  A
C719        C726   1.508       .  S
C720        C721   1.407       .  A
C720        H725   1.085       .  S
C721        C722   1.426       .  A
C722        C723   1.506       .  S
C723        H727   1.112       .  S
C723        H728   1.109       .  S
C723        H729   1.107       .  S
C726        H730   1.105       .  S
C726        H731   1.110       .  S
C726        H732   1.110       .  S
C733        C734   1.404       .  A
C733        C738   1.398       .  A
C733        H740   1.052       .  S
C734        C735   1.424       .  A
C735        C736   1.408       .  A
C735        C742   1.504       .  S
C736        C737   1.403       .  A
C736        H741   1.081       .  S
C737        C738   1.413       .  A
C738        C739   1.511       .  S
C739        H743   1.110       .  S
C739        H744   1.110       .  S
C739        H745   1.108       .  S
C742        H746   1.107       .  S
C742        H747   1.110       .  S
C742        H748   1.111       .  S
C749        C750   1.418       .  A
C749        C754   1.416       .  A
C749        H756   1.078       .  S
C750        C751   1.425       .  A
C751        C752   1.381       .  A
C751        C758   1.514       .  S
C752        C753   1.399       .  A
C752        H757   1.082       .  S
C753        C754   1.419       .  A
C754        C755   1.504       .  S
C755        H759   1.111       .  S
C755        H760   1.110       .  S
C755        H761   1.106       .  S
C758        H762   1.107       .  S
C758        H763   1.108       .  S
C758        H764   1.111       .  S
C765        C766   1.407       .  A
C765        C770   1.391       .  A
C765        H772   1.081       .  S
C766        C767   1.425       .  A
C767        C768   1.419       .  A
C767        C774   1.503       .  S
C768        C769   1.416       .  A
C768        H773   1.078       .  S
C769        C770   1.408       .  A
C770        C771   1.508       .  S
C771        H775   1.110       .  S
C771        H776   1.107       .  S
C771        H777   1.096       .  S
C774        H778   1.101       .  S
C774        H779   1.111       .  S
C774        H780   1.110       .  S
C781        C782   1.411       .  A
C781        C786   1.410       .  A
C781        H788   1.078       .  S
C782        C783   1.440       .  A
C783        C784   1.395       .  A
C783        C790   1.514       .  S
C784        C785   1.393       .  A
C784        H789   1.083       .  S
C785        C786   1.417       .  A
C786        C787   1.498       .  S
C787        H791   1.110       .  S
C787        H792   1.102       .  S
C787        H793   1.110       .  S
C790        H794   1.104       .  S
C790        H795   1.106       .  S
C790        H796   1.108       .  S
C797        C798   1.399       .  A
C797        C802   1.397       .  A
C797        H804   1.086       .  S
C798        C799   1.419       .  A
C799        C800   1.414       .  A
C799        C806   1.511       .  S
C800        C801   1.414       .  A
C800        H805   1.074       .  S
C801        C802   1.422       .  A
C802        C803   1.492       .  S
C803        H807   1.112       .  S
C803        H808   1.088       .  S
C803        H809   1.110       .  S
C806        H810   1.107       .  S
C806        H811   1.102       .  S
C806        H812   1.111       .  S
C813        C814   1.406       .  A
C813        C818   1.415       .  A
C813        H820   1.083       .  S
C814        C815   1.420       .  A
C815        C816   1.401       .  A
C815        C822   1.506       .  S
C816        C817   1.405       .  A
C816        H821   1.080       .  S
C817        C818   1.424       .  A
C818        C819   1.506       .  S
C819        H823   1.111       .  S
C819        H824   1.106       .  S
C819        H825   1.110       .  S
C822        H826   1.105       .  S
C822        H827   1.109       .  S
C822        H828   1.111       .  S
C829        C830   1.404       .  A
C829        C834   1.411       .  A
C829        H836   1.085       .  S
C830        C831   1.415       .  A
C831        C832   1.410       .  A
C831        C838   1.500       .  S
C832        C833   1.414       .  A
C832        H837   1.084       .  S
C833        C834   1.422       .  A
C834        C835   1.502       .  S
C835        H839   1.111       .  S
C835        H840   1.106       .  S
C835        H841   1.106       .  S
C838        H842   1.107       .  S
C838        H843   1.110       .  S
C838        H844   1.111       .  S
C845        C846   1.408       .  A
C845        C850   1.401       .  A
C845        H852   1.070       .  S
C846        C847   1.421       .  A
C847        C848   1.406       .  A
C847        C854   1.509       .  S
C848        C849   1.409       .  A
C848        H853   1.073       .  S
C849        C850   1.411       .  A
C850        C851   1.508       .  S
C851        H855   1.111       .  S
C851        H856   1.103       .  S
C851        H857   1.106       .  S
C854        H858   1.110       .  S
C854        H859   1.104       .  S
C854        H860   1.111       .  S
C861        C862   1.415       .  A
C861        C866   1.407       .  A
C861        H868   1.084       .  S
C862        C863   1.432       .  A
C863        C864   1.407       .  A
C863        C870   1.481       .  S
C864        C865   1.393       .  A
C864        H869   1.081       .  S
C865        C866   1.417       .  A
C866        C867   1.496       .  S
C867        H871   1.111       .  S
C867        H872   1.100       .  S
C867        H873   1.110       .  S
C870        H874   1.096       .  S
C870        H875   1.103       .  S
C870        H876   1.111       .  S
C877        C878   1.414       .  A
C877        C882   1.422       .  A
C877        H884   1.082       .  S
C878        C879   1.409       .  A
C879        C880   1.385   1_545  A
C879        C886   1.501   1_545  S
C880        C881   1.406       .  A
C880        H885   1.083       .  S
C881        C882   1.425   1_565  A
C882        C883   1.502       .  S
C883        H887   1.111       .  S
C883        H888   1.107       .  S
C883        H889   1.110       .  S
C886        H890   1.104   1_565  S
C886        H891   1.109       .  S
C886        H892   1.109       .  S
C893        C894   1.410       .  A
C893        C898   1.412       .  A
C893        H900   1.083       .  S
C894        C895   1.416       .  A
C895        C896   1.401   1_455  A
C895        C902   1.498       .  S
C896        C897   1.405       .  A
C896        H901   1.085       .  S
C897        C898   1.424   1_655  A
C898        C899   1.507       .  S
C899        H903   1.111       .  S
C899        H904   1.102       .  S
C899        H905   1.110       .  S
C902        H906   1.108       .  S
C902        H907   1.102       .  S
C902        H908   1.111   1_455  S
C909        C910   1.401       .  A
C909        C914   1.400       .  A
C909        H916   1.084       .  S
C910        C911   1.413       .  A
C911        C912   1.389       .  A
C911        C918   1.505       .  S
C912        C913   1.400       .  A
C912        H917   1.085       .  S
C913        C914   1.417       .  A
C914        C915   1.508       .  S
C915        H919   1.111       .  S
C915        H920   1.110       .  S
C915        H921   1.110       .  S
C918        H922   1.107       .  S
C918        H923   1.108       .  S
C918        H924   1.103       .  S
C925        C926   1.406       .  A
C925        C930   1.408       .  A
C925        H932   1.083       .  S
C926        C927   1.416       .  A
C927        C928   1.409       .  A
C927        C934   1.500       .  S
C928        C929   1.407       .  A
C928        H933   1.081       .  S
C929        C930   1.418       .  A
C930        C931   1.501       .  S
C931        H935   1.111       .  S
C931        H936   1.102       .  S
C931        H937   1.103       .  S
C934        H938   1.110       .  S
C934        H939   1.110       .  S
C934        H940   1.111       .  S
C941        C942   1.406       .  A
C941        C946   1.402       .  A
C941        H948   1.084       .  S
C942        C943   1.414       .  A
C943        C944   1.403       .  A
C943        C950   1.508       .  S
C944        C945   1.406       .  A
C944        H949   1.076       .  S
C945        C946   1.410       .  A
C946        C947   1.503       .  S
C947        H951   1.102       .  S
C947        H952   1.102       .  S
C947        H953   1.104       .  S
C950        H954   1.110       .  S
C950        H955   1.110       .  S
C950        H956   1.111       .  S
C957        C958   1.401       .  A
C957        C962   1.393       .  A
C957        H964   1.085       .  S
C958        C959   1.419       .  A
C959        C960   1.389       .  A
C959        C966   1.506       .  S
C960        C961   1.396       .  A
C960        H965   1.085       .  S
C961        C962   1.411       .  A
C962        C963   1.506       .  S
C963        H967   1.111       .  S
C963        H968   1.110       .  S
C963        H969   1.110       .  S
C966        H970   1.110       .  S
C966        H971   1.100       .  S
C966        H972   1.111       .  S
C973        C974   1.411       .  A
C973        C978   1.403       .  A
C973        H980   1.084       .  S
C974        C975   1.412       .  A
C975        C976   1.409       .  A
C975        C982   1.506       .  S
C976        C977   1.416       .  A
C976        H981   1.078       .  S
C977        C978   1.414       .  A
C978        C979   1.507       .  S
C979        H983   1.111       .  S
C979        H984   1.106       .  S
C979        H985   1.110       .  S
C982        H986   1.110       .  S
C982        H987   1.110       .  S
C982        H988   1.111       .  S
C989        C990   1.402       .  A
C989        C994   1.409       .  A
C989        H996   1.084       .  S
C990        C991   1.413       .  A
C991        C992   1.406       .  A
C991        C998   1.504   1_455  S
C992        C993   1.403       .  A
C992        H997   1.084   1_455  S
C993        C994   1.420       .  A
C994        C995   1.506       .  S
C995        H999   1.110       .  S
C995       H1000   1.108       .  S
C995       H1001   1.110       .  S
C998       H1002   1.110       .  S
C998       H1003   1.110       .  S
C998       H1004   1.105       .  S
C1005      C1006   1.393       .  A
C1005      C1010   1.399       .  A
C1005      H1012   1.086       .  S
C1006      C1007   1.412       .  A
C1007      C1008   1.413       .  A
C1007      C1014   1.502       .  S
C1008      C1009   1.412       .  A
C1008      H1013   1.083       .  S
C1009      C1010   1.411       .  A
C1010      C1011   1.482       .  S
C1011      H1015   1.111       .  S
C1011      H1016   1.099       .  S
C1011      H1017   1.108       .  S
C1014      H1018   1.110       .  S
C1014      H1019   1.106       .  S
C1014      H1020   1.111       .  S
C1021      C1022   1.412       .  A
C1021      C1026   1.388       .  A
C1021      H1028   1.081       .  S
C1022      C1023   1.435       .  A
C1023      C1024   1.428       .  A
C1023      C1030   1.502       .  S
C1024      C1025   1.414       .  A
C1024      H1029   1.083       .  S
C1025      C1026   1.414       .  A
C1026      C1027   1.505       .  S
C1027      H1031   1.111       .  S
C1027      H1032   1.103       .  S
C1027      H1033   1.109       .  S
C1030      H1034   1.109       .  S
C1030      H1035   1.105       .  S
C1030      H1036   1.108       .  S
C1037      C1038   1.408       .  A
C1037      C1042   1.419       .  A
C1037      H1044   1.083       .  S
C1038      C1039   1.416       .  A
C1039      C1040   1.394       .  A
C1039      C1046   1.505       .  S
C1040      C1041   1.397       .  A
C1040      H1045   1.057       .  S
C1041      C1042   1.428       .  A
C1042      C1043   1.507       .  S
C1043      H1047   1.111       .  S
C1043      H1048   1.110       .  S
C1043      H1049   1.106       .  S
C1046      H1050   1.107       .  S
C1046      H1051   1.104       .  S
C1046      H1052   1.111       .  S
C1053      C1054   1.392       .  A
C1053      C1058   1.393       .  A
C1053      H1060   1.084       .  S
C1054      C1055   1.421       .  A
C1055      C1056   1.407       .  A
C1055      C1062   1.509       .  S
C1056      C1057   1.405       .  A
C1056      H1061   1.084       .  S
C1057      C1058   1.418       .  A
C1058      C1059   1.504       .  S
C1059      H1063   1.111       .  S
C1059      H1064   1.107       .  S
C1059      H1065   1.110       .  S
C1062      H1066   1.108       .  S
C1062      H1067   1.109       .  S
C1062      H1068   1.107       .  S
C1069      C1070   1.406       .  A
C1069      C1074   1.405       .  A
C1069      H1076   1.084       .  S
C1070      C1071   1.415       .  A
C1071      C1072   1.404       .  A
C1071      C1078   1.500       .  S
C1072      C1073   1.400       .  A
C1072      H1077   1.084       .  S
C1073      C1074   1.420       .  A
C1074      C1075   1.504       .  S
C1075      H1079   1.110       .  S
C1075      H1080   1.109       .  S
C1075      H1081   1.106       .  S
C1078      H1082   1.110       .  S
C1078      H1083   1.109       .  S
C1078      H1084   1.097       .  S
C1085      C1086   1.391       .  A
C1085      C1090   1.385       .  A
C1085      H1092   1.067       .  S
C1086      C1087   1.413       .  A
C1087      C1088   1.404       .  A
C1087      C1094   1.506       .  S
C1088      C1089   1.406       .  A
C1088      H1093   1.083       .  S
C1089      C1090   1.415       .  A
C1090      C1091   1.510       .  S
C1091      H1095   1.107       .  S
C1091      H1096   1.110       .  S
C1091      H1097   1.099       .  S
C1094      H1098   1.110       .  S
C1094      H1099   1.110       .  S
C1094      H1100   1.111       .  S
C1101      C1102   1.405       .  A
C1101      C1106   1.403       .  A
C1101      H1108   1.084       .  S
C1102      C1103   1.417       .  A
C1103      C1104   1.404       .  A
C1103      C1110   1.507       .  S
C1104      C1105   1.405       .  A
C1104      H1109   1.084       .  S
C1105      C1106   1.420       .  A
C1106      C1107   1.505       .  S
C1107      H1111   1.109       .  S
C1107      H1112   1.110       .  S
C1107      H1113   1.105       .  S
C1110      H1114   1.092       .  S
C1110      H1115   1.103       .  S
C1110      H1116   1.110       .  S
C1117      C1118   1.404       .  A
C1117      C1122   1.393       .  A
C1117      H1124   1.084       .  S
C1118      C1119   1.419       .  A
C1119      C1120   1.399       .  A
C1119      C1126   1.509       .  S
C1120      C1121   1.400       .  A
C1120      H1125   1.084       .  S
C1121      C1122   1.418       .  A
C1122      C1123   1.514       .  S
C1123      H1127   1.100       .  S
C1123      H1128   1.101       .  S
C1123      H1129   1.107       .  S
C1126      H1130   1.110       .  S
C1126      H1131   1.111       .  S
C1126      H1132   1.111       .  S
C1133      C1134   1.402       .  A
C1133      C1138   1.403       .  A
C1133      H1140   1.084       .  S
C1134      C1135   1.419       .  A
C1135      C1136   1.400       .  A
C1135      C1142   1.510       .  S
C1136      C1137   1.400       .  A
C1136      H1141   1.084       .  S
C1137      C1138   1.424       .  A
C1138      C1139   1.507       .  S
C1139      H1143   1.109       .  S
C1139      H1144   1.107       .  S
C1139      H1145   1.109       .  S
C1142      H1146   1.108       .  S
C1142      H1147   1.110       .  S
C1142      H1148   1.111       .  S
C1149      C1150   1.414       .  A
C1149      C1154   1.406       .  A
C1149      H1156   1.081       .  S
C1150      C1151   1.413       .  A
C1151      C1152   1.399       .  A
C1151      C1158   1.507       .  S
C1152      C1153   1.409       .  A
C1152      H1157   1.085       .  S
C1153      C1154   1.413       .  A
C1154      C1155   1.506       .  S
C1155      H1159   1.111       .  S
C1155      H1160   1.110       .  S
C1155      H1161   1.110       .  S
C1158      H1162   1.111       .  S
C1158      H1163   1.106       .  S
C1158      H1164   1.110       .  S
C1165      C1166   1.405       .  A
C1165      C1170   1.407       .  A
C1165      H1172   1.079       .  S
C1166      C1167   1.426       .  A
C1167      C1168   1.405       .  A
C1167      C1174   1.506       .  S
C1168      C1169   1.399       .  A
C1168      H1173   1.085       .  S
C1169      C1170   1.411       .  A
C1170      C1171   1.507       .  S
C1171      H1175   1.108       .  S
C1171      H1176   1.111       .  S
C1171      H1177   1.110       .  S
C1174      H1178   1.105       .  S
C1174      H1179   1.110       .  S
C1174      H1180   1.110       .  S
C1181      C1182   1.400       .  A
C1181      C1186   1.404       .  A
C1181      H1188   1.083       .  S
C1182      C1183   1.418       .  A
C1183      C1184   1.403       .  A
C1183      C1190   1.507       .  S
C1184      C1185   1.403       .  A
C1184      H1189   1.085       .  S
C1185      C1186   1.412       .  A
C1186      C1187   1.507   1_545  S
C1187      H1191   1.108       .  S
C1187      H1192   1.111       .  S
C1187      H1193   1.110       .  S
C1190      H1194   1.108       .  S
C1190      H1195   1.110       .  S
C1190      H1196   1.110       .  S
C1197      C1198   1.406       .  A
C1197      C1202   1.410       .  A
C1197      H1204   1.084       .  S
C1198      C1199   1.412       .  A
C1199      C1200   1.387       .  A
C1199      C1206   1.513       .  S
C1200      C1201   1.403       .  A
C1200      H1205   1.077       .  S
C1201      C1202   1.418       .  A
C1202      C1203   1.507       .  S
C1203      H1207   1.110       .  S
C1203      H1208   1.110       .  S
C1203      H1209   1.106       .  S
C1206      H1210   1.110       .  S
C1206      H1211   1.107       .  S
C1206      H1212   1.109       .  S
C1213      C1214   1.399       .  A
C1213      C1218   1.386       .  A
C1213      H1220   1.084       .  S
C1214      C1215   1.407       .  A
C1215      C1216   1.396       .  A
C1215      C1222   1.506       .  S
C1216      C1217   1.406       .  A
C1216      H1221   1.084       .  S
C1217      C1218   1.417       .  A
C1218      C1219   1.511       .  S
C1219      H1223   1.111       .  S
C1219      H1224   1.110       .  S
C1219      H1225   1.109       .  S
C1222      H1226   1.108       .  S
C1222      H1227   1.110       .  S
C1222      H1228   1.110       .  S
C1229      C1230   1.404       .  A
C1229      C1234   1.402       .  A
C1229      H1236   1.084       .  S
C1230      C1231   1.420       .  A
C1231      C1232   1.406       .  A
C1231      C1238   1.505       .  S
C1232      C1233   1.404       .  A
C1232      H1237   1.083       .  S
C1233      C1234   1.419       .  A
C1234      C1235   1.502       .  S
C1235      H1239   1.110       .  S
C1235      H1240   1.107       .  S
C1235      H1241   1.106       .  S
C1238      H1242   1.109       .  S
C1238      H1243   1.110       .  S
C1238      H1244   1.108       .  S
C1245      C1246   1.406       .  A
C1245      C1250   1.404       .  A
C1245      H1252   1.083       .  S
C1246      C1247   1.417       .  A
C1247      C1248   1.406       .  A
C1247      C1254   1.506       .  S
C1248      C1249   1.406       .  A
C1248      H1253   1.083       .  S
C1249      C1250   1.418       .  A
C1250      C1251   1.512       .  S
C1251      H1255   1.111       .  S
C1251      H1256   1.104       .  S
C1251      H1257   1.101       .  S
C1254      H1258   1.110       .  S
C1254      H1259   1.108       .  S
C1254      H1260   1.111       .  S
C1261      C1262   1.403       .  A
C1261      C1266   1.404       .  A
C1261      H1268   1.084       .  S
C1262      C1263   1.415       .  A
C1263      C1264   1.397       .  A
C1263      C1270   1.510       .  S
C1264      C1265   1.398       .  A
C1264      H1269   1.083       .  S
C1265      C1266   1.421       .  A
C1266      C1267   1.512       .  S
C1267      H1271   1.110       .  S
C1267      H1272   1.107       .  S
C1267      H1273   1.096       .  S
C1270      H1274   1.108       .  S
C1270      H1275   1.110       .  S
C1270      H1276   1.111       .  S
C1277      C1278   1.407       .  A
C1277      C1282   1.408       .  A
C1277      H1284   1.084       .  S
C1278      C1279   1.414       .  A
C1279      C1280   1.406       .  A
C1279      C1286   1.508       .  S
C1280      C1281   1.403       .  A
C1280      H1285   1.080       .  S
C1281      C1282   1.419       .  A
C1282      C1283   1.509       .  S
C1283      H1287   1.111       .  S
C1283      H1288   1.104       .  S
C1283      H1289   1.109       .  S
C1286      H1290   1.110       .  S
C1286      H1291   1.104   1_455  S
C1286      H1292   1.110       .  S
C1293      C1294   1.401       .  A
C1293      C1298   1.406       .  A
C1293      H1300   1.084       .  S
C1294      C1295   1.412       .  A
C1295      C1296   1.402       .  A
C1295      C1302   1.496       .  S
C1296      C1297   1.400       .  A
C1296      H1301   1.084       .  S
C1297      C1298   1.419       .  A
C1298      C1299   1.506       .  S
C1299      H1303   1.111       .  S
C1299      H1304   1.107       .  S
C1299      H1305   1.103       .  S
C1302      H1306   1.111       .  S
C1302      H1307   1.110       .  S
C1302      H1308   1.111       .  S
C1309      C1310   1.408       .  A
C1309      C1314   1.403       .  A
C1309      H1316   1.083       .  S
C1310      C1311   1.416       .  A
C1311      C1312   1.408       .  A
C1311      C1318   1.501   1_455  S
C1312      C1313   1.402       .  A
C1312      H1317   1.084   1_455  S
C1313      C1314   1.411       .  A
C1314      C1315   1.506       .  S
C1315      H1319   1.111       .  S
C1315      H1320   1.110       .  S
C1315      H1321   1.108       .  S
C1318      H1322   1.107   1_655  S
C1318      H1323   1.109       .  S
C1318      H1324   1.108       .  S
C1325      C1326   1.405       .  A
C1325      C1330   1.401       .  A
C1325      H1332   1.084       .  S
C1326      C1327   1.410       .  A
C1327      C1328   1.403       .  A
C1327      C1334   1.508       .  S
C1328      C1329   1.413       .  A
C1328      H1333   1.077       .  S
C1329      C1330   1.416       .  A
C1330      C1331   1.500       .  S
C1331      H1335   1.111       .  S
C1331      H1336   1.110       .  S
C1331      H1337   1.098       .  S
C1334      H1338   1.110       .  S
C1334      H1339   1.110       .  S
C1334      H1340   1.111       .  S
C1341      C1342   1.404       .  A
C1341      C1346   1.401       .  A
C1341      H1348   1.084       .  S
C1342      C1343   1.412       .  A
C1343      C1344   1.391       .  A
C1343      C1350   1.509       .  S
C1344      C1345   1.403       .  A
C1344      H1349   1.084       .  S
C1345      C1346   1.412       .  A
C1346      C1347   1.509       .  S
C1347      H1351   1.111       .  S
C1347      H1352   1.107       .  S
C1347      H1353   1.109       .  S
C1350      H1354   1.110       .  S
C1350      H1355   1.109       .  S
C1350      H1356   1.111       .  S
C1357      C1358   1.407       .  A
C1357      C1362   1.406       .  A
C1357      H1364   1.083       .  S
C1358      C1359   1.417       .  A
C1359      C1360   1.401       .  A
C1359      C1366   1.499       .  S
C1360      C1361   1.398       .  A
C1360      H1365   1.081       .  S
C1361      C1362   1.415       .  A
C1362      C1363   1.503       .  S
C1363      H1367   1.111       .  S
C1363      H1368   1.104       .  S
C1363      H1369   1.107       .  S
C1366      H1370   1.110       .  S
C1366      H1371   1.110       .  S
C1366      H1372   1.111       .  S
C1373      C1374   1.402       .  A
C1373      C1378   1.399       .  A
C1373      H1380   1.082       .  S
C1374      C1375   1.415       .  A
C1375      C1376   1.401       .  A
C1375      C1382   1.504       .  S
C1376      C1377   1.404       .  A
C1376      H1381   1.085       .  S
C1377      C1378   1.417       .  A
C1378      C1379   1.509       .  S
C1379      H1383   1.111       .  S
C1379      H1384   1.110       .  S
C1379      H1385   1.110       .  S
C1382      H1386   1.110       .  S
C1382      H1387   1.107       .  S
C1382      H1388   1.111       .  S
C1389      C1390   1.407       .  A
C1389      C1394   1.399       .  A
C1389      H1396   1.085       .  S
C1390      C1391   1.415       .  A
C1391      C1392   1.400       .  A
C1391      C1398   1.507       .  S
C1392      C1393   1.407       .  A
C1392      H1397   1.081       .  S
C1393      C1394   1.412       .  A
C1394      C1395   1.507       .  S
C1395      H1399   1.110       .  S
C1395      H1400   1.110       .  S
C1395      H1401   1.108       .  S
C1398      H1402   1.110       .  S
C1398      H1403   1.108   1_545  S
C1398      H1404   1.111       .  S
C1405      C1406   1.400       .  A
C1405      C1410   1.401       .  A
C1405      H1412   1.083       .  S
C1406      C1407   1.420       .  A
C1407      C1408   1.412       .  A
C1407      C1414   1.506       .  S
C1408      C1409   1.408       .  A
C1408      H1413   1.084       .  S
C1409      C1410   1.421       .  A
C1410      C1411   1.511       .  S
C1411      H1415   1.111       .  S
C1411      H1416   1.109       .  S
C1411      H1417   1.110       .  S
C1414      H1418   1.107       .  S
C1414      H1419   1.110       .  S
C1414      H1420   1.107       .  S
C1421      C1422   1.402       .  A
C1421      C1426   1.402       .  A
C1421      H1428   1.084       .  S
C1422      C1423   1.412       .  A
C1423      C1424   1.396       .  A
C1423      C1430   1.499       .  S
C1424      C1425   1.399       .  A
C1424      H1429   1.082       .  S
C1425      C1426   1.425       .  A
C1426      C1427   1.510       .  S
C1427      H1431   1.106   1_545  S
C1427      H1432   1.107       .  S
C1427      H1433   1.109       .  S
C1430      H1434   1.110       .  S
C1430      H1435   1.105       .  S
C1430      H1436   1.111       .  S
C1437      C1438   1.402       .  A
C1437      C1442   1.407       .  A
C1437      H1444   1.084       .  S
C1438      C1439   1.412       .  A
C1439      C1440   1.407       .  A
C1439      C1446   1.505       .  S
C1440      C1441   1.405       .  A
C1440      H1445   1.083       .  S
C1441      C1442   1.421       .  A
C1442      C1443   1.508       .  S
C1443      H1447   1.111       .  S
C1443      H1448   1.105       .  S
C1443      H1449   1.101       .  S
C1446      H1450   1.111       .  S
C1446      H1451   1.110       .  S
C1446      H1452   1.109       .  S
C1453      C1454   1.406       .  A
C1453      C1458   1.402       .  A
C1453      H1460   1.084       .  S
C1454      C1455   1.419       .  A
C1455      C1456   1.399       .  A
C1455      C1462   1.509       .  S
C1456      C1457   1.401       .  A
C1456      H1461   1.082       .  S
C1457      C1458   1.414       .  A
C1458      C1459   1.504       .  S
C1459      H1463   1.111       .  S
C1459      H1464   1.108       .  S
C1459      H1465   1.106       .  S
C1462      H1466   1.110       .  S
C1462      H1467   1.110       .  S
C1462      H1468   1.111       .  S
C1469      C1470   1.408       .  A
C1469      C1474   1.402       .  A
C1469      H1476   1.084       .  S
C1470      C1471   1.413       .  A
C1471      C1472   1.396       .  A
C1471      C1478   1.509       .  S
C1472      C1473   1.404       .  A
C1472      H1477   1.083       .  S
C1473      C1474   1.413       .  A
C1474      C1475   1.507       .  S
C1475      H1479   1.110       .  S
C1475      H1480   1.110       .  S
C1475      H1481   1.108       .  S
C1478      H1482   1.110       .  S
C1478      H1483   1.099       .  S
C1478      H1484   1.109       .  S
C1485      C1486   1.402       .  A
C1485      C1490   1.401       .  A
C1485      H1492   1.084       .  S
C1486      C1487   1.422       .  A
C1487      C1488   1.404       .  A
C1487      C1494   1.503       .  S
C1488      C1489   1.402       .  A
C1488      H1493   1.084       .  S
C1489      C1490   1.416       .  A
C1490      C1491   1.499       .  S
C1491      H1495   1.111       .  S
C1491      H1496   1.110       .  S
C1491      H1497   1.103       .  S
C1494      H1498   1.101       .  S
C1494      H1499   1.110       .  S
C1494      H1500   1.110       .  S
C1501      C1502   1.404       .  A
C1501      C1506   1.397       .  A
C1501      H1508   1.084       .  S
C1502      C1503   1.413       .  A
C1503      C1504   1.402       .  A
C1503      C1510   1.508       .  S
C1504      C1505   1.408       .  A
C1504      H1509   1.084       .  S
C1505      C1506   1.415       .  A
C1506      C1507   1.508       .  S
C1507      H1511   1.111       .  S
C1507      H1512   1.109       .  S
C1507      H1513   1.110       .  S
C1510      H1514   1.110       .  S
C1510      H1515   1.108       .  S
C1510      H1516   1.110       .  S
C1517      C1518   1.401       .  A
C1517      C1522   1.402       .  A
C1517      H1524   1.084       .  S
C1518      C1519   1.418       .  A
C1519      C1520   1.398       .  A
C1519      C1526   1.511       .  S
C1520      C1521   1.400       .  A
C1520      H1525   1.084       .  S
C1521      C1522   1.427       .  A
C1522      C1523   1.508       .  S
C1523      H1527   1.109   1_545  S
C1523      H1528   1.109       .  S
C1523      H1529   1.109       .  S
C1526      H1530   1.108       .  S
C1526      H1531   1.110       .  S
C1526      H1532   1.111       .  S
C1533      C1534   1.404       .  A
C1533      C1538   1.400       .  A
C1533      H1540   1.085       .  S
C1534      C1535   1.411       .  A
C1535      C1536   1.408       .  A
C1535      C1542   1.504       .  S
C1536      C1537   1.411       .  A
C1536      H1541   1.082       .  S
C1537      C1538   1.415       .  A
C1538      C1539   1.502       .  S
C1539      H1543   1.111       .  S
C1539      H1544   1.110       .  S
C1539      H1545   1.100       .  S
C1542      H1546   1.103   1_545  S
C1542      H1547   1.110       .  S
C1542      H1548   1.111       .  S
C1549      C1550   1.401       .  A
C1549      C1554   1.400       .  A
C1549      H1556   1.086       .  S
C1550      C1551   1.423       .  A
C1551      C1552   1.414       .  A
C1551      C1558   1.509       .  S
C1552      C1553   1.410       .  A
C1552      H1557   1.083       .  S
C1553      C1554   1.424       .  A
C1554      C1555   1.501       .  S
C1555      H1559   1.108       .  S
C1555      H1560   1.096       .  S
C1555      H1561   1.112       .  S
C1558      H1562   1.107       .  S
C1558      H1563   1.107       .  S
C1558      H1564   1.111       .  S
C1565      C1566   1.404       .  A
C1565      C1570   1.403       .  A
C1565      H1572   1.077       .  S
C1566      C1567   1.421       .  A
C1567      C1568   1.408       .  A
C1567      C1574   1.501       .  S
C1568      C1569   1.401       .  A
C1568      H1573   1.084       .  S
C1569      C1570   1.416       .  A
C1570      C1571   1.510       .  S
C1571      H1575   1.111       .  S
C1571      H1576   1.110       .  S
C1571      H1577   1.108       .  S
C1574      H1578   1.109       .  S
C1574      H1579   1.101       .  S
C1574      H1580   1.105       .  S
C1581      C1582   1.403       .  A
C1581      C1586   1.402       .  A
C1581      H1588   1.084       .  S
C1582      C1583   1.418       .  A
C1583      C1584   1.407       .  A
C1583      C1590   1.505       .  S
C1584      C1585   1.404       .  A
C1584      H1589   1.085       .  S
C1585      C1586   1.414       .  A
C1586      C1587   1.502       .  S
C1587      H1591   1.111       .  S
C1587      H1592   1.110       .  S
C1587      H1593   1.110       .  S
C1590      H1594   1.110       .  S
C1590      H1595   1.107       .  S
C1590      H1596   1.110       .  S
C1597      C1598   1.404       .  A
C1597      C1602   1.400       .  A
C1597      H1604   1.081       .  S
C1598      C1599   1.414       .  A
C1599      C1600   1.398       .  A
C1599      C1606   1.508       .  S
C1600      C1601   1.404       .  A
C1600      H1605   1.083       .  S
C1601      C1602   1.412       .  A
C1602      C1603   1.506       .  S
C1603      H1607   1.109       .  S
C1603      H1608   1.107       .  S
C1603      H1609   1.101       .  S
C1606      H1610   1.109       .  S
C1606      H1611   1.110       .  S
C1606      H1612   1.111       .  S
C1613      C1614   1.411       .  A
C1613      C1618   1.414       .  A
C1613      H1620   1.084       .  S
C1614      C1615   1.416       .  A
C1615      C1616   1.402       .  A
C1615      C1622   1.511       .  S
C1616      C1617   1.407       .  A
C1616      H1621   1.070       .  S
C1617      C1618   1.417       .  A
C1618      C1619   1.504       .  S
C1619      H1623   1.110       .  S
C1619      H1624   1.110       .  S
C1619      H1625   1.106       .  S
C1622      H1626   1.106       .  S
C1622      H1627   1.110       .  S
C1622      H1628   1.111       .  S
C1629      C1630   1.411       .  A
C1629      C1634   1.408       .  A
C1629      H1636   1.083       .  S
C1630      C1631   1.423       .  A
C1631      C1632   1.399       .  A
C1631      C1638   1.510       .  S
C1632      C1633   1.401       .  A
C1632      H1637   1.084       .  S
C1633      C1634   1.406       .  A
C1634      C1635   1.502       .  S
C1635      H1639   1.108       .  S
C1635      H1640   1.107       .  S
C1635      H1641   1.096       .  S
C1638      H1642   1.110       .  S
C1638      H1643   1.110       .  S
C1638      H1644   1.111       .  S
C1645      C1646   1.396       .  A
C1645      C1650   1.396       .  A
C1645      H1652   1.085       .  S
C1646      C1647   1.414       .  A
C1647      C1648   1.408       .  A
C1647      C1654   1.505       .  S
C1648      C1649   1.410       .  A
C1648      H1653   1.083       .  S
C1649      C1650   1.415       .  A
C1650      C1651   1.492       .  S
C1651      H1655   1.105       .  S
C1651      H1656   1.089       .  S
C1651      H1657   1.109       .  S
C1654      H1658   1.110       .  S
C1654      H1659   1.107       .  S
C1654      H1660   1.111       .  S
C1661      C1662   1.396       .  A
C1661      C1666   1.404       .  A
C1661      H1668   1.085       .  S
C1662      C1663   1.414       .  A
C1663      C1664   1.413       .  A
C1663      C1670   1.505       .  S
C1664      C1665   1.409       .  A
C1664      H1669   1.083       .  S
C1665      C1666   1.416       .  A
C1666      C1667   1.491       .  S
C1667      H1671   1.107       .  S
C1667      H1672   1.103       .  S
C1667      H1673   1.090       .  S
C1670      H1674   1.109       .  S
C1670      H1675   1.110       .  S
C1670      H1676   1.111       .  S
C1677      C1678   1.413       .  A
C1677      C1682   1.406       .  A
C1677      H1684   1.082       .  S
C1678      C1679   1.415       .  A
C1679      C1680   1.402       .  A
C1679      C1686   1.506       .  S
C1680      C1681   1.409       .  A
C1680      H1685   1.085       .  S
C1681      C1682   1.412       .  A
C1682      C1683   1.507       .  S
C1683      H1687   1.111       .  S
C1683      H1688   1.106       .  S
C1683      H1689   1.110       .  S
C1686      H1690   1.099       .  S
C1686      H1691   1.110       .  S
C1686      H1692   1.110       .  S
C1693      C1694   1.413       .  A
C1693      C1698   1.395       .  A
C1693      H1700   1.081       .  S
C1694      C1695   1.423       .  A
C1695      C1696   1.426       .  A
C1695      C1702   1.504       .  S
C1696      C1697   1.417       .  A
C1696      H1701   1.082       .  S
C1697      C1698   1.416       .  A
C1698      C1699   1.509       .  S
C1699      H1703   1.111       .  S
C1699      H1704   1.098       .  S
C1699      H1705   1.111       .  S
C1702      H1706   1.110       .  S
C1702      H1707   1.104       .  S
C1702      H1708   1.110       .  S
C1709      C1710   1.408       .  A
C1709      C1714   1.390       .  A
C1709      H1716   1.073       .  S
C1710      C1711   1.430       .  A
C1711      C1712   1.434       .  A
C1711      C1718   1.502       .  S
C1712      C1713   1.421       .  A
C1712      H1717   1.082       .  S
C1713      C1714   1.415       .  A
C1714      C1715   1.506   1_556  S
C1715      H1719   1.111   1_554  S
C1715      H1720   1.107       .  S
C1715      H1721   1.099       .  S
C1718      H1722   1.110       .  S
C1718      H1723   1.105       .  S
C1718      H1724   1.111       .  S
C1725      C1726   1.402       .  A
C1725      C1730   1.406       .  A
C1725      H1732   1.084       .  S
C1726      C1727   1.425       .  A
C1727      C1728   1.401       .  A
C1727      C1734   1.502       .  S
C1728      C1729   1.397       .  A
C1728      H1733   1.085       .  S
C1729      C1730   1.417       .  A
C1730      C1731   1.507       .  S
C1731      H1735   1.111       .  S
C1731      H1736   1.110       .  S
C1731      H1737   1.106       .  S
C1734      H1738   1.107       .  S
C1734      H1739   1.103       .  S
C1734      H1740   1.107       .  S
C1741      C1742   1.412       .  A
C1741      C1746   1.414       .  A
C1741      H1748   1.084       .  S
C1742      C1743   1.420       .  A
C1743      C1744   1.399   1_545  A
C1743      C1750   1.494       .  S
C1744      C1745   1.400       .  A
C1744      H1749   1.079       .  S
C1745      C1746   1.424   1_565  A
C1746      C1747   1.503       .  S
C1747      H1751   1.111       .  S
C1747      H1752   1.109       .  S
C1747      H1753   1.098   1_545  S
C1750      H1754   1.103       .  S
C1750      H1755   1.100       .  S
C1750      H1756   1.111   1_545  S
C1757      C1758   1.405       .  A
C1757      C1762   1.399       .  A
C1757      H1764   1.081       .  S
C1758      C1759   1.410       .  A
C1759      C1760   1.408       .  A
C1759      C1766   1.506       .  S
C1760      C1761   1.408       .  A
C1760      H1765   1.084       .  S
C1761      C1762   1.413       .  A
C1762      C1763   1.505       .  S
C1763      H1767   1.111       .  S
C1763      H1768   1.110       .  S
C1763      H1769   1.110       .  S
C1766      H1770   1.107       .  S
C1766      H1771   1.110       .  S
C1766      H1772   1.111       .  S
C1773      C1774   1.407       .  A
C1773      C1778   1.405       .  A
C1773      H1780   1.084       .  S
C1774      C1775   1.422       .  A
C1775      C1776   1.396       .  A
C1775      C1782   1.514       .  S
C1776      C1777   1.389       .  A
C1776      H1781   1.082       .  S
C1777      C1778   1.418       .  A
C1778      C1779   1.507       .  S
C1779      H1783   1.110       .  S
C1779      H1784   1.109       .  S
C1779      H1785   1.110       .  S
C1782      H1786   1.110       .  S
C1782      H1787   1.099       .  S
C1782      H1788   1.111       .  S
C1789      C1790   1.405       .  A
C1789      C1794   1.399       .  A
C1789      H1796   1.084       .  S
C1790      C1791   1.418       .  A
C1791      C1792   1.394       .  A
C1791      C1798   1.504       .  S
C1792      C1793   1.396       .  A
C1792      H1797   1.083       .  S
C1793      C1794   1.415       .  A
C1794      C1795   1.508       .  S
C1795      H1799   1.110       .  S
C1795      H1800   1.110       .  S
C1795      H1801   1.109       .  S
C1798      H1802   1.110       .  S
C1798      H1803   1.108       .  S
C1798      H1804   1.108       .  S
C1805      C1806   1.403       .  A
C1805      C1810   1.404       .  A
C1805      H1812   1.083       .  S
C1806      C1807   1.421       .  A
C1807      C1808   1.405       .  A
C1807      C1814   1.509       .  S
C1808      C1809   1.405       .  A
C1808      H1813   1.081       .  S
C1809      C1810   1.417       .  A
C1810      C1811   1.501       .  S
C1811      H1815   1.108       .  S
C1811      H1816   1.110       .  S
C1811      H1817   1.096       .  S
C1814      H1818   1.110       .  S
C1814      H1819   1.110       .  S
C1814      H1820   1.111       .  S
C1821      C1822   1.402       .  A
C1821      C1826   1.404       .  A
C1821      H1828   1.079       .  S
C1822      C1823   1.411       .  A
C1823      C1824   1.406       .  A
C1823      C1830   1.505       .  S
C1824      C1825   1.410       .  A
C1824      H1829   1.081       .  S
C1825      C1826   1.409       .  A
C1826      C1827   1.504       .  S
C1827      H1831   1.100       .  S
C1827      H1832   1.106       .  S
C1827      H1833   1.100       .  S
C1830      H1834   1.110       .  S
C1830      H1835   1.110       .  S
C1830      H1836   1.111       .  S
C1837      C1838   1.393       .  A
C1837      C1842   1.401       .  A
C1837      H1844   1.085       .  S
C1838      C1839   1.411       .  A
C1839      C1840   1.411       .  A
C1839      C1846   1.506       .  S
C1840      C1841   1.413       .  A
C1840      H1845   1.082       .  S
C1841      C1842   1.419       .  A
C1842      C1843   1.487   1_545  S
C1843      H1847   1.105       .  S
C1843      H1848   1.110       .  S
C1843      H1849   1.096   1_565  S
C1846      H1850   1.110       .  S
C1846      H1851   1.110       .  S
C1846      H1852   1.111       .  S
C1853      C1854   1.404       .  A
C1853      C1858   1.408       .  A
C1853      H1860   1.080       .  S
C1854      C1855   1.413       .  A
C1855      C1856   1.403       .  A
C1855      C1862   1.507       .  S
C1856      C1857   1.407       .  A
C1856      H1861   1.084       .  S
C1857      C1858   1.409       .  A
C1858      C1859   1.512       .  S
C1859      H1863   1.110       .  S
C1859      H1864   1.104       .  S
C1859      H1865   1.111       .  S
C1862      H1866   1.109       .  S
C1862      H1867   1.110       .  S
C1862      H1868   1.111       .  S
C1869      C1870   1.402       .  A
C1869      C1874   1.410       .  A
C1869      H1876   1.084       .  S
C1870      C1871   1.411       .  A
C1871      C1872   1.400       .  A
C1871      C1878   1.497   1_545  S
C1872      C1873   1.395       .  A
C1872      H1877   1.084       .  S
C1873      C1874   1.421       .  A
C1874      C1875   1.505       .  S
C1875      H1879   1.109       .  S
C1875      H1880   1.110       .  S
C1875      H1881   1.109       .  S
C1878      H1882   1.109       .  S
C1878      H1883   1.109       .  S
C1878      H1884   1.100       .  S
C1885      C1886   1.407       .  A
C1885      C1890   1.412       .  A
C1885      H1892   1.084       .  S
C1886      C1887   1.416       .  A
C1887      C1888   1.400       .  A
C1887      C1894   1.510       .  S
C1888      C1889   1.402       .  A
C1888      H1893   1.081       .  S
C1889      C1890   1.415       .  A
C1890      C1891   1.506       .  S
C1891      H1895   1.094       .  S
C1891      H1896   1.110       .  S
C1891      H1897   1.106       .  S
C1894      H1898   1.110       .  S
C1894      H1899   1.108       .  S
C1894      H1900   1.111       .  S
C1901      C1902   1.402       .  A
C1901      C1906   1.406       .  A
C1901      H1908   1.084       .  S
C1902      C1903   1.411       .  A
C1903      C1904   1.403       .  A
C1903      C1910   1.509       .  S
C1904      C1905   1.414       .  A
C1904      H1909   1.080       .  S
C1905      C1906   1.411       .  A
C1906      C1907   1.501       .  S
C1907      H1911   1.110       .  S
C1907      H1912   1.106       .  S
C1907      H1913   1.110       .  S
C1910      H1914   1.108       .  S
C1910      H1915   1.110       .  S
C1910      H1916   1.110       .  S
C1917      C1918   1.404       .  A
C1917      C1922   1.409       .  A
C1917      H1924   1.079       .  S
C1918      C1919   1.423       .  A
C1919      C1920   1.405       .  A
C1919      C1926   1.507       .  S
C1920      C1921   1.405       .  A
C1920      H1925   1.084       .  S
C1921      C1922   1.421       .  A
C1922      C1923   1.507       .  S
C1923      H1927   1.111       .  S
C1923      H1928   1.110       .  S
C1923      H1929   1.110       .  S
C1926      H1930   1.106       .  S
C1926      H1931   1.111       .  S
C1926      H1932   1.110       .  S
C1933      C1934   1.396       .  A
C1933      C1938   1.392       .  A
C1933      H1940   1.084       .  S
C1934      C1935   1.414       .  A
C1935      C1936   1.387       .  A
C1935      C1942   1.508       .  S
C1936      C1937   1.400       .  A
C1936      H1941   1.085       .  S
C1937      C1938   1.417       .  A
C1938      C1939   1.509       .  S
C1939      H1943   1.111       .  S
C1939      H1944   1.110       .  S
C1939      H1945   1.110       .  S
C1942      H1946   1.104       .  S
C1942      H1947   1.111       .  S
C1942      H1948   1.110       .  S
C1949      C1950   1.405       .  A
C1949      C1954   1.407       .  A
C1949      H1956   1.084       .  S
C1950      C1951   1.421       .  A
C1951      C1952   1.397       .  A
C1951      C1958   1.511       .  S
C1952      C1953   1.395       .  A
C1952      H1957   1.074       .  S
C1953      C1954   1.421       .  A
C1954      C1955   1.506       .  S
C1955      H1959   1.110       .  S
C1955      H1960   1.111       .  S
C1955      H1961   1.106       .  S
C1958      H1962   1.110       .  S
C1958      H1963   1.110       .  S
C1958      H1964   1.110       .  S
C1965      C1966   1.401       .  A
C1965      C1970   1.406       .  A
C1965      H1972   1.084       .  S
C1966      C1967   1.419       .  A
C1967      C1968   1.394       .  A
C1967      C1974   1.513       .  S
C1968      C1969   1.398       .  A
C1968      H1973   1.080       .  S
C1969      C1970   1.424       .  A
C1970      C1971   1.504       .  S
C1971      H1975   1.110       .  S
C1971      H1976   1.100       .  S
C1971      H1977   1.110       .  S
C1974      H1978   1.108       .  S
C1974      H1979   1.110       .  S
C1974      H1980   1.111       .  S
C1981      C1982   1.405       .  A
C1981      C1986   1.402       .  A
C1981      H1988   1.082       .  S
C1982      C1983   1.411       .  A
C1983      C1984   1.404       .  A
C1983      C1990   1.505       .  S
C1984      C1985   1.404       .  A
C1984      H1989   1.085       .  S
C1985      C1986   1.411       .  A
C1986      C1987   1.507       .  S
C1987      H1991   1.111       .  S
C1987      H1992   1.110       .  S
C1987      H1993   1.110       .  S
C1990      H1994   1.109       .  S
C1990      H1995   1.106       .  S
C1990      H1996   1.110       .  S
C1997      C1998   1.402       .  A
C1997      C2002   1.404       .  A
C1997      H2004   1.084       .  S
C1998      C1999   1.418       .  A
C1999      C2000   1.404       .  A
C1999      C2006   1.510       .  S
C2000      C2001   1.403       .  A
C2000      H2005   1.085       .  S
C2001      C2002   1.415       .  A
C2002      C2003   1.507       .  S
C2003      H2007   1.111       .  S
C2003      H2008   1.110       .  S
C2003      H2009   1.110       .  S
C2006      H2010   1.109       .  S
C2006      H2011   1.100       .  S
C2006      H2012   1.111       .  S
C2013      C2014   1.398       .  A
C2013      C2018   1.402       .  A
C2013      H2020   1.085       .  S
C2014      C2015   1.410       .  A
C2015      C2016   1.404       .  A
C2015      C2022   1.507       .  S
C2016      C2017   1.411       .  A
C2016      H2021   1.081       .  S
C2017      C2018   1.420       .  A
C2018      C2019   1.496       .  S
C2019      H2023   1.102       .  S
C2019      H2024   1.109       .  S
C2019      H2025   1.100       .  S
C2022      H2026   1.110       .  S
C2022      H2027   1.109       .  S
C2022      H2028   1.111       .  S
C2029      C2030   1.402       .  A
C2029      C2034   1.403       .  A
C2029      H2036   1.084       .  S
C2030      C2031   1.409       .  A
C2031      C2032   1.401       .  A
C2031      C2038   1.500       .  S
C2032      C2033   1.404       .  A
C2032      H2037   1.084       .  S
C2033      C2034   1.418       .  A
C2034      C2035   1.505       .  S
C2035      H2039   1.109       .  S
C2035      H2040   1.109       .  S
C2035      H2041   1.110       .  S
C2038      H2042   1.107       .  S
C2038      H2043   1.109       .  S
C2038      H2044   1.101       .  S
C2045      C2046   1.407       .  A
C2045      C2050   1.411       .  A
C2045      H2052   1.084       .  S
C2046      C2047   1.411       .  A
C2047      C2048   1.399       .  A
C2047      C2054   1.508       .  S
C2048      C2049   1.407       .  A
C2048      H2053   1.076       .  S
C2049      C2050   1.416       .  A
C2050      C2051   1.506       .  S
C2051      H2055   1.110       .  S
C2051      H2056   1.110       .  S
C2051      H2057   1.107       .  S
C2054      H2058   1.110       .  S
C2054      H2059   1.109       .  S
C2054      H2060   1.111       .  S
C2061      C2062   1.396       .  A
C2061      C2066   1.397       .  A
C2061      H2068   1.085       .  S
C2062      C2063   1.416       .  A
C2063      C2064   1.410       .  A
C2063      C2070   1.506       .  S
C2064      C2065   1.412       .  A
C2064      H2069   1.083       .  S
C2065      C2066   1.416       .  A
C2066      C2067   1.491       .  S
C2067      H2071   1.108       .  S
C2067      H2072   1.098       .  S
C2067      H2073   1.109       .  S
C2070      H2074   1.110       .  S
C2070      H2075   1.110       .  S
C2070      H2076   1.111       .  S
C2077      C2078   1.408       .  A
C2077      C2082   1.408       .  A
C2077      H2084   1.083       .  S
C2078      C2079   1.422       .  A
C2079      C2080   1.402       .  A
C2079      C2086   1.514       .  S
C2080      C2081   1.401       .  A
C2080      H2085   1.085       .  S
C2081      C2082   1.417       .  A
C2082      C2083   1.509       .  S
C2083      H2087   1.111       .  S
C2083      H2088   1.107       .  S
C2083      H2089   1.101       .  S
C2086      H2090   1.106       .  S
C2086      H2091   1.109       .  S
C2086      H2092   1.111       .  S
C2093      C2094   1.412       .  A
C2093      C2098   1.401       .  A
C2093      H2100   1.080       .  S
C2094      C2095   1.415       .  A
C2095      C2096   1.401       .  A
C2095      C2102   1.509   1_455  S
C2096      C2097   1.402       .  A
C2096      H2101   1.076   1_455  S
C2097      C2098   1.404       .  A
C2098      C2099   1.506       .  S
C2099      H2103   1.111       .  S
C2099      H2104   1.110       .  S
C2099      H2105   1.110       .  S
C2102      H2106   1.107   1_655  S
C2102      H2107   1.110       .  S
C2102      H2108   1.111       .  S
C2109      C2110   1.405       .  A
C2109      C2114   1.408       .  A
C2109      H2116   1.085       .  S
C2110      C2111   1.409       .  A
C2111      C2112   1.398       .  A
C2111      C2118   1.491   1_455  S
C2112      C2113   1.398       .  A
C2112      H2117   1.077       .  S
C2113      C2114   1.420       .  A
C2114      C2115   1.506       .  S
C2115      H2119   1.110       .  S
C2115      H2120   1.110       .  S
C2115      H2121   1.107       .  S
C2118      H2122   1.108       .  S
C2118      H2123   1.109       .  S
C2118      H2124   1.110       .  S
C2125      C2126   1.405       .  A
C2125      C2130   1.408       .  A
C2125      H2132   1.080       .  S
C2126      C2127   1.420       .  A
C2127      C2128   1.407       .  A
C2127      C2134   1.507       .  S
C2128      C2129   1.404       .  A
C2128      H2133   1.084       .  S
C2129      C2130   1.413       .  A
C2130      C2131   1.506       .  S
C2131      H2135   1.110       .  S
C2131      H2136   1.105       .  S
C2131      H2137   1.110       .  S
C2134      H2138   1.110       .  S
C2134      H2139   1.108       .  S
C2134      H2140   1.110       .  S
C2141      C2142   1.418       .  A
C2141      C2146   1.429       .  A
C2141      H2148   1.081       .  S
C2142      C2143   1.436       .  A
C2143      C2144   1.391   1_455  A
C2143      C2150   1.510   1_455  S
C2144      C2145   1.394       .  A
C2144      H2149   1.086       .  S
C2145      C2146   1.427   1_655  A
C2146      C2147   1.503       .  S
C2147      H2151   1.110       .  S
C2147      H2152   1.106       .  S
C2147      H2153   1.110       .  S
C2150      H2154   1.104       .  S
C2150      H2155   1.105       .  S
C2150      H2156   1.112       .  S
C2157      C2158   1.408       .  A
C2157      C2162   1.411       .  A
C2157      H2164   1.085       .  S
C2158      C2159   1.422       .  A
C2159      C2160   1.409       .  A
C2159      C2166   1.510       .  S
C2160      C2161   1.410       .  A
C2160      H2165   1.071       .  S
C2161      C2162   1.422       .  A
C2162      C2163   1.500       .  S
C2163      H2167   1.110       .  S
C2163      H2168   1.107       .  S
C2163      H2169   1.105       .  S
C2166      H2170   1.106       .  S
C2166      H2171   1.108       .  S
C2166      H2172   1.111       .  S
C2173      C2174   1.402       .  A
C2173      C2178   1.403       .  A
C2173      H2180   1.077       .  S
C2174      C2175   1.418       .  A
C2175      C2176   1.415       .  A
C2175      C2182   1.499       .  S
C2176      C2177   1.416       .  A
C2176      H2181   1.077       .  S
C2177      C2178   1.425       .  A
C2178      C2179   1.507       .  S
C2179      H2183   1.110       .  S
C2179      H2184   1.109       .  S
C2179      H2185   1.107       .  S
C2182      H2186   1.108       .  S
C2182      H2187   1.109       .  S
C2182      H2188   1.107       .  S
C2189      C2190   1.402       .  A
C2189      C2194   1.394       .  A
C2189      H2196   1.084       .  S
C2190      C2191   1.417       .  A
C2191      C2192   1.397       .  A
C2191      C2198   1.509       .  S
C2192      C2193   1.402       .  A
C2192      H2197   1.082       .  S
C2193      C2194   1.416       .  A
C2194      C2195   1.507       .  S
C2195      H2199   1.107       .  S
C2195      H2200   1.107       .  S
C2195      H2201   1.111       .  S
C2198      H2202   1.110       .  S
C2198      H2203   1.109       .  S
C2198      H2204   1.111       .  S
C2205      C2206   1.403       .  A
C2205      C2210   1.398       .  A
C2205      H2212   1.084       .  S
C2206      C2207   1.416       .  A
C2207      C2208   1.398       .  A
C2207      C2214   1.509       .  S
C2208      C2209   1.401       .  A
C2208      H2213   1.077       .  S
C2209      C2210   1.418       .  A
C2210      C2211   1.506       .  S
C2211      H2215   1.110       .  S
C2211      H2216   1.111       .  S
C2211      H2217   1.103       .  S
C2214      H2218   1.110       .  S
C2214      H2219   1.106       .  S
C2214      H2220   1.111       .  S
C2221      C2222   1.404       .  A
C2221      C2226   1.395       .  A
C2221      H2228   1.081       .  S
C2222      C2223   1.417       .  A
C2223      C2224   1.398       .  A
C2223      C2230   1.508       .  S
C2224      C2225   1.405       .  A
C2224      H2229   1.084       .  S
C2225      C2226   1.410       .  A
C2226      C2227   1.506       .  S
C2227      H2231   1.111       .  S
C2227      H2232   1.104       .  S
C2227      H2233   1.111       .  S
C2230      H2234   1.110       .  S
C2230      H2235   1.110       .  S
C2230      H2236   1.111       .  S
C2237      C2238   1.405       .  A
C2237      C2242   1.400       .  A
C2237      H2244   1.084       .  S
C2238      C2239   1.413       .  A
C2239      C2240   1.402       .  A
C2239      C2246   1.507       .  S
C2240      C2241   1.407       .  A
C2240      H2245   1.082       .  S
C2241      C2242   1.416       .  A
C2242      C2243   1.510       .  S
C2243      H2247   1.111       .  S
C2243      H2248   1.111       .  S
C2243      H2249   1.105       .  S
C2246      H2250   1.110       .  S
C2246      H2251   1.110       .  S
C2246      H2252   1.111       .  S
C2253      C2254   1.402       .  A
C2253      C2258   1.403       .  A
C2253      H2260   1.084       .  S
C2254      C2255   1.417       .  A
C2255      C2256   1.398       .  A
C2255      C2262   1.511       .  S
C2256      C2257   1.400       .  A
C2256      H2261   1.084       .  S
C2257      C2258   1.426       .  A
C2258      C2259   1.508       .  S
C2259      H2263   1.110       .  S
C2259      H2264   1.108       .  S
C2259      H2265   1.108       .  S
C2262      H2266   1.108       .  S
C2262      H2267   1.110       .  S
C2262      H2268   1.111       .  S
C2269      C2270   1.397       .  A
C2269      C2274   1.397       .  A
C2269      H2276   1.086       .  S
C2270      C2271   1.413       .  A
C2271      C2272   1.415       .  A
C2271      C2278   1.504       .  S
C2272      C2273   1.412       .  A
C2272      H2277   1.083       .  S
C2273      C2274   1.420       .  A
C2274      C2275   1.497       .  S
C2275      H2279   1.110       .  S
C2275      H2280   1.110       .  S
C2275      H2281   1.087       .  S
C2278      H2282   1.111       .  S
C2278      H2283   1.110       .  S
C2278      H2284   1.111       .  S
C2285      C2286   1.402       .  A
C2285      C2290   1.405       .  A
C2285      H2292   1.085       .  S
C2286      C2287   1.410       .  A
C2287      C2288   1.406       .  A
C2287      C2294   1.502       .  S
C2288      C2289   1.405       .  A
C2288      H2293   1.083       .  S
C2289      C2290   1.421       .  A
C2290      C2291   1.505       .  S
C2291      H2295   1.110       .  S
C2291      H2296   1.106       .  S
C2291      H2297   1.110       .  S
C2294      H2298   1.104   1_455  S
C2294      H2299   1.110       .  S
C2294      H2300   1.109   1_455  S
C2301      C2302   1.394       .  A
C2301      C2306   1.387       .  A
C2301      H2308   1.083       .  S
C2302      C2303   1.431       .  A
C2303      C2304   1.437       .  A
C2303      C2310   1.501       .  S
C2304      C2305   1.423       .  A
C2304      H2309   1.081       .  S
C2305      C2306   1.433       .  A
C2306      C2307   1.504       .  S
C2307      H2311   1.110   1_554  S
C2307      H2312   1.104       .  S
C2307      H2313   1.104       .  S
C2310      H2314   1.110       .  S
C2310      H2315   1.107       .  S
C2310      H2316   1.110       .  S
C2317      C2318   1.407       .  A
C2317      C2322   1.405       .  A
C2317      H2324   1.082       .  S
C2318      C2319   1.425       .  A
C2319      C2320   1.405       .  A
C2319      C2326   1.509       .  S
C2320      C2321   1.402       .  A
C2320      H2325   1.084       .  S
C2321      C2322   1.408       .  A
C2322      C2323   1.509       .  S
C2323      H2327   1.105       .  S
C2323      H2328   1.110       .  S
C2323      H2329   1.104       .  S
C2326      H2330   1.109       .  S
C2326      H2331   1.109       .  S
C2326      H2332   1.110       .  S
C2333      C2334   1.410       .  A
C2333      C2338   1.403       .  A
C2333      H2340   1.083       .  S
C2334      C2335   1.412       .  A
C2335      C2336   1.401       .  A
C2335      C2342   1.509       .  S
C2336      C2337   1.401       .  A
C2336      H2341   1.073       .  S
C2337      C2338   1.410       .  A
C2338      C2339   1.507       .  S
C2339      H2343   1.111       .  S
C2339      H2344   1.110       .  S
C2339      H2345   1.110       .  S
C2342      H2346   1.108       .  S
C2342      H2347   1.107       .  S
C2342      H2348   1.109       .  S
C2349      C2350   1.404       .  A
C2349      C2354   1.403       .  A
C2349      H2356   1.084       .  S
C2350      C2351   1.421       .  A
C2351      C2352   1.397       .  A
C2351      C2358   1.502       .  S
C2352      C2353   1.394       .  A
C2352      H2357   1.085       .  S
C2353      C2354   1.416       .  A
C2354      C2355   1.504       .  S
C2355      H2359   1.110       .  S
C2355      H2360   1.110       .  S
C2355      H2361   1.106       .  S
C2358      H2362   1.109       .  S
C2358      H2363   1.110       .  S
C2358      H2364   1.109       .  S
C2365      C2366   1.405       .  A
C2365      C2370   1.400       .  A
C2365      H2372   1.082       .  S
C2366      C2367   1.415       .  A
C2367      C2368   1.396       .  A
C2367      C2374   1.506       .  S
C2368      C2369   1.405       .  A
C2368      H2373   1.083       .  S
C2369      C2370   1.409       .  A
C2370      C2371   1.502       .  S
C2371      H2375   1.111       .  S
C2371      H2376   1.100       .  S
C2371      H2377   1.108       .  S
C2374      H2378   1.110       .  S
C2374      H2379   1.109       .  S
C2374      H2380   1.111       .  S
C2381      C2382   1.400       .  A
C2381      C2386   1.388       .  A
C2381      H2388   1.085       .  S
C2382      C2383   1.415       .  A
C2383      C2384   1.401       .  A
C2383      C2390   1.507       .  S
C2384      C2385   1.404       .  A
C2384      H2389   1.084       .  S
C2385      C2386   1.415       .  A
C2386      C2387   1.507       .  S
C2387      H2391   1.111       .  S
C2387      H2392   1.105       .  S
C2387      H2393   1.109       .  S
C2390      H2394   1.110       .  S
C2390      H2395   1.110       .  S
C2390      H2396   1.111       .  S
C2397      C2398   1.394       .  A
C2397      C2402   1.394       .  A
C2397      H2404   1.085       .  S
C2398      C2399   1.413       .  A
C2399      C2400   1.410       .  A
C2399      C2406   1.505       .  S
C2400      C2401   1.408       .  A
C2400      H2405   1.083       .  S
C2401      C2402   1.420       .  A
C2402      C2403   1.496       .  S
C2403      H2407   1.110       .  S
C2403      H2408   1.095       .  S
C2403      H2409   1.111       .  S
C2406      H2410   1.109       .  S
C2406      H2411   1.110       .  S
C2406      H2412   1.111       .  S
C2413      C2414   1.406       .  A
C2413      C2418   1.414       .  A
C2413      H2420   1.084       .  S
C2414      C2415   1.416       .  A
C2415      C2416   1.404       .  A
C2415      C2422   1.510       .  S
C2416      C2417   1.406       .  A
C2416      H2421   1.078       .  S
C2417      C2418   1.423       .  A
C2418      C2419   1.502       .  S
C2419      H2423   1.103       .  S
C2419      H2424   1.103       .  S
C2419      H2425   1.110       .  S
C2422      H2426   1.108       .  S
C2422      H2427   1.110       .  S
C2422      H2428   1.111       .  S
C2429      C2430   1.401       .  A
C2429      C2434   1.403       .  A
C2429      H2436   1.085       .  S
C2430      C2431   1.412       .  A
C2431      C2432   1.409       .  A
C2431      C2438   1.504       .  S
C2432      C2433   1.408       .  A
C2432      H2437   1.083       .  S
C2433      C2434   1.421       .  A
C2434      C2435   1.505       .  S
C2435      H2439   1.109       .  S
C2435      H2440   1.104       .  S
C2435      H2441   1.111       .  S
C2438      H2442   1.110       .  S
C2438      H2443   1.111       .  S
C2438      H2444   1.109       .  S
C2445      C2446   1.401       .  A
C2445      C2450   1.404       .  A
C2445      H2452   1.084       .  S
C2446      C2447   1.422       .  A
C2447      C2448   1.399       .  A
C2447      C2454   1.509       .  S
C2448      C2449   1.396       .  A
C2448      H2453   1.084       .  S
C2449      C2450   1.427       .  A
C2450      C2451   1.508       .  S
C2451      H2455   1.099       .  S
C2451      H2456   1.109       .  S
C2451      H2457   1.106       .  S
C2454      H2458   1.110       .  S
C2454      H2459   1.108       .  S
C2454      H2460   1.111       .  S
C2461      C2462   1.399       .  A
C2461      C2466   1.400       .  A
C2461      H2468   1.084       .  S
C2462      C2463   1.419       .  A
C2463      C2464   1.404       .  A
C2463      C2470   1.509       .  S
C2464      C2465   1.403       .  A
C2464      H2469   1.084       .  S
C2465      C2466   1.426       .  A
C2466      C2467   1.503       .  S
C2467      H2471   1.107       .  S
C2467      H2472   1.108       .  S
C2467      H2473   1.108       .  S
C2470      H2474   1.110       .  S
C2470      H2475   1.108       .  S
C2470      H2476   1.111       .  S
C2477      C2478   1.407       .  A
C2477      C2482   1.404       .  A
C2477      H2484   1.083       .  S
C2478      C2479   1.416       .  A
C2479      C2480   1.402       .  A
C2479      C2486   1.510       .  S
C2480      C2481   1.407       .  A
C2480      H2485   1.075       .  S
C2481      C2482   1.411       .  A
C2482      C2483   1.501       .  S
C2483      H2487   1.104       .  S
C2483      H2488   1.098       .  S
C2483      H2489   1.110       .  S
C2486      H2490   1.110       .  S
C2486      H2491   1.110       .  S
C2486      H2492   1.111       .  S
C2493      C2494   1.401       .  A
C2493      C2498   1.399       .  A
C2493      H2500   1.083       .  S
C2494      C2495   1.406       .  A
C2495      C2496   1.399       .  A
C2495      C2502   1.508       .  S
C2496      C2497   1.407       .  A
C2496      H2501   1.084       .  S
C2497      C2498   1.419       .  A
C2498      C2499   1.508       .  S
C2499      H2503   1.111       .  S
C2499      H2504   1.108       .  S
C2499      H2505   1.110       .  S
C2502      H2506   1.107       .  S
C2502      H2507   1.100       .  S
C2502      H2508   1.107       .  S
C2509      C2510   1.404       .  A
C2509      C2514   1.405       .  A
C2509      H2516   1.078       .  S
C2510      C2511   1.406       .  A
C2511      C2512   1.394       .  A
C2511      C2518   1.492       .  S
C2512      C2513   1.401       .  A
C2512      H2517   1.085       .  S
C2513      C2514   1.415       .  A
C2514      C2515   1.503       .  S
C2515      H2519   1.110       .  S
C2515      H2520   1.110       .  S
C2515      H2521   1.101       .  S
C2518      H2522   1.099       .  S
C2518      H2523   1.105       .  S
C2518      H2524   1.110       .  S
C2525      C2526   1.401       .  A
C2525      C2530   1.400       .  A
C2525      H2532   1.084       .  S
C2526      C2527   1.411       .  A
C2527      C2528   1.385       .  A
C2527      C2534   1.500       .  S
C2528      C2529   1.399       .  A
C2528      H2533   1.085       .  S
C2529      C2530   1.418       .  A
C2530      C2531   1.507       .  S
C2531      H2535   1.111       .  S
C2531      H2536   1.110       .  S
C2531      H2537   1.110       .  S
C2534      H2538   1.108       .  S
C2534      H2539   1.104       .  S
C2534      H2540   1.111       .  S
C2541      C2542   1.410       .  A
C2541      C2546   1.401       .  A
C2541      H2548   1.085       .  S
C2542      C2543   1.415       .  A
C2543      C2544   1.402       .  A
C2543      C2550   1.507       .  S
C2544      C2545   1.410       .  A
C2544      H2549   1.081       .  S
C2545      C2546   1.411       .  A
C2546      C2547   1.508       .  S
C2547      H2551   1.110       .  S
C2547      H2552   1.110       .  S
C2547      H2553   1.107       .  S
C2550      H2554   1.110       .  S
C2550      H2555   1.110       .  S
C2550      H2556   1.111       .  S
C2557      C2558   1.404       .  A
C2557      C2562   1.414       .  A
C2557      H2564   1.081       .  S
C2558      C2559   1.416       .  A
C2559      C2560   1.403       .  A
C2559      C2566   1.510       .  S
C2560      C2561   1.403       .  A
C2560      H2565   1.074       .  S
C2561      C2562   1.420       .  A
C2562      C2563   1.503       .  S
C2563      H2567   1.106       .  S
C2563      H2568   1.101       .  S
C2563      H2569   1.110       .  S
C2566      H2570   1.107       .  S
C2566      H2571   1.110       .  S
C2566      H2572   1.111       .  S
C2573      C2574   1.400       .  A
C2573      C2578   1.397       .  A
C2573      H2580   1.076       .  S
C2574      C2575   1.418       .  A
C2575      C2576   1.416       .  A
C2575      C2582   1.504       .  S
C2576      C2577   1.407       .  A
C2576      H2581   1.084       .  S
C2577      C2578   1.413       .  A
C2578      C2579   1.506       .  S
C2579      H2583   1.111       .  S
C2579      H2584   1.110       .  S
C2579      H2585   1.102       .  S
C2582      H2586   1.105       .  S
C2582      H2587   1.108       .  S
C2582      H2588   1.111       .  S
C2589      C2590   1.401       .  A
C2589      C2594   1.407       .  A
C2589      H2596   1.084       .  S
C2590      C2591   1.409       .  A
C2591      C2592   1.400       .  A
C2591      C2598   1.505       .  S
C2592      C2593   1.400       .  A
C2592      H2597   1.083       .  S
C2593      C2594   1.421       .  A
C2594      C2595   1.511       .  S
C2595      H2599   1.111       .  S
C2595      H2600   1.106       .  S
C2595      H2601   1.099       .  S
C2598      H2602   1.110       .  S
C2598      H2603   1.110       .  S
C2598      H2604   1.106       .  S
C2605      C2606   1.419       .  A
C2605      C2610   1.432       .  A
C2605      H2612   1.081       .  S
C2606      C2607   1.435       .  A
C2607      C2608   1.388   1_545  A
C2607      C2614   1.508   1_545  S
C2608      C2609   1.394       .  A
C2608      H2613   1.086       .  S
C2609      C2610   1.426   1_565  A
C2610      C2611   1.503       .  S
C2611      H2615   1.109       .  S
C2611      H2616   1.106       .  S
C2611      H2617   1.110       .  S
C2614      H2618   1.103       .  S
C2614      H2619   1.106       .  S
C2614      H2620   1.112       .  S
C2621      C2622   1.416       .  A
C2621      C2626   1.419       .  A
C2621      H2628   1.078       .  S
C2622      C2623   1.420       .  A
C2623      C2624   1.402       .  A
C2623      C2630   1.508       .  S
C2624      C2625   1.402       .  A
C2624      H2629   1.075       .  S
C2625      C2626   1.421       .  A
C2626      C2627   1.502       .  S
C2627      H2631   1.111       .  S
C2627      H2632   1.109       .  S
C2627      H2633   1.110       .  S
C2630      H2634   1.109       .  S
C2630      H2635   1.110       .  S
C2630      H2636   1.109       .  S
C2637      C2638   1.391       .  A
C2637      C2642   1.388       .  A
C2637      H2644   1.082       .  S
C2638      C2639   1.422       .  A
C2639      C2640   1.428       .  A
C2639      C2646   1.503       .  S
C2640      C2641   1.422       .  A
C2640      H2645   1.078       .  S
C2641      C2642   1.436       .  A
C2642      C2643   1.510       .  S
C2643      H2647   1.109       .  S
C2643      H2648   1.105       .  S
C2643      H2649   1.105       .  S
C2646      H2650   1.107       .  S
C2646      H2651   1.110       .  S
C2646      H2652   1.110       .  S
C2653      C2654   1.409       .  A
C2653      C2658   1.402       .  A
C2653      H2660   1.081       .  S
C2654      C2655   1.415       .  A
C2655      C2656   1.416   1_545  A
C2655      C2662   1.506       .  S
C2656      C2657   1.415       .  A
C2656      H2661   1.084       .  S
C2657      C2658   1.420   1_565  A
C2658      C2659   1.509       .  S
C2659      H2663   1.111       .  S
C2659      H2664   1.105   1_545  S
C2659      H2665   1.110       .  S
C2662      H2666   1.110       .  S
C2662      H2667   1.106       .  S
C2662      H2668   1.111   1_545  S
C2669      C2670   1.386       .  A
C2669      C2674   1.400       .  A
C2669      H2676   1.082       .  S
C2670      C2671   1.420       .  A
C2671      C2672   1.429       .  A
C2671      C2678   1.504       .  S
C2672      C2673   1.420       .  A
C2672      H2677   1.076       .  S
C2673      C2674   1.454       .  A
C2674      C2675   1.515       .  S
C2675      H2679   1.112       .  S
C2675      H2680   1.105       .  S
C2675      H2681   1.101       .  S
C2678      H2682   1.110       .  S
C2678      H2683   1.110       .  S
C2678      H2684   1.110       .  S
C2685      C2686   1.407       .  A
C2685      C2690   1.400   1_655  A
C2685      H2692   1.078       .  S
C2686      C2687   1.425   1_655  A
C2687      C2688   1.419       .  A
C2687      C2694   1.503       .  S
C2688      C2689   1.413       .  A
C2688      H2693   1.080       .  S
C2689      C2690   1.421       .  A
C2690      C2691   1.508       .  S
C2691      H2695   1.111   1_455  S
C2691      H2696   1.096       .  S
C2691      H2697   1.111       .  S
C2694      H2698   1.111       .  S
C2694      H2699   1.099       .  S
C2694      H2700   1.109       .  S
C2701      C2702   1.418       .  A
C2701      C2706   1.393   1_655  A
C2701      H2708   1.075       .  S
C2702      C2703   1.435   1_655  A
C2703      C2704   1.430       .  A
C2703      C2710   1.502       .  S
C2704      C2705   1.411       .  A
C2704      H2709   1.083       .  S
C2705      C2706   1.398       .  A
C2706      C2707   1.505   1_455  S
C2707      H2711   1.109       .  S
C2707      H2712   1.103   1_655  S
C2707      H2713   1.101       .  S
C2710      H2714   1.108       .  S
C2710      H2715   1.110       .  S
C2710      H2716   1.111       .  S
C2717      C2718   1.416       .  A
C2717      C2722   1.422       .  A
C2717      H2724   1.084       .  S
C2718      C2719   1.424       .  A
C2719      C2720   1.406       .  A
C2719      C2726   1.504       .  S
C2720      C2721   1.409       .  A
C2720      H2725   1.085       .  S
C2721      C2722   1.428       .  A
C2722      C2723   1.507       .  S
C2723      H2727   1.111       .  S
C2723      H2728   1.104       .  S
C2723      H2729   1.110       .  S
C2726      H2730   1.099       .  S
C2726      H2731   1.110       .  S
C2726      H2732   1.112       .  S
C2733      C2734   1.427       .  A
C2733      C2738   1.407       .  A
C2733      H2740   1.081       .  S
C2734      C2735   1.451       .  A
C2735      C2736   1.422       .  A
C2735      C2742   1.493       .  S
C2736      C2737   1.394       .  A
C2736      H2741   1.085       .  S
C2737      C2738   1.407       .  A
C2738      C2739   1.509       .  S
C2739      H2743   1.109       .  S
C2739      H2744   1.102       .  S
C2739      H2745   1.105       .  S
C2742      H2746   1.101       .  S
C2742      H2747   1.098       .  S
C2742      H2748   1.111       .  S
C2749      C2750   1.385       .  A
C2749      C2754   1.398   1_565  A
C2749      H2756   1.086       .  S
C2750      C2751   1.422   1_565  A
C2751      C2752   1.437       .  A
C2751      C2758   1.501       .  S
C2752      C2753   1.421       .  A
C2752      H2757   1.080       .  S
C2753      C2754   1.463       .  A
C2754      C2755   1.519   1_545  S
C2755      H2759   1.111       .  S
C2755      H2760   1.103   1_565  S
C2755      H2761   1.094       .  S
C2758      H2762   1.108       .  S
C2758      H2763   1.110       .  S
C2758      H2764   1.110       .  S
C2765      C2766   1.404       .  A
C2765      C2770   1.398   1_565  A
C2765      H2772   1.075       .  S
C2766      C2767   1.431   1_565  A
C2767      C2768   1.420       .  A
C2767      C2774   1.502       .  S
C2768      C2769   1.413       .  A
C2768      H2773   1.082       .  S
C2769      C2770   1.424       .  A
C2770      C2771   1.507   1_545  S
C2771      H2775   1.110       .  S
C2771      H2776   1.092   1_565  S
C2771      H2777   1.110       .  S
C2774      H2778   1.110       .  S
C2774      H2779   1.098   1_545  S
C2774      H2780   1.111       .  S
C2781      C2782   1.421       .  A
C2781      C2786   1.426       .  A
C2781      H2788   1.082       .  S
C2782      C2783   1.413       .  A
C2783      C2784   1.405       .  A
C2783      C2790   1.506       .  S
C2784      C2785   1.416       .  A
C2784      H2789   1.079       .  S
C2785      C2786   1.424       .  A
C2786      C2787   1.504       .  S
C2787      H2791   1.110       .  S
C2787      H2792   1.104       .  S
C2787      H2793   1.110       .  S
C2790      H2794   1.110       .  S
C2790      H2795   1.111       .  S
C2790      H2796   1.106       .  S
C2797      C2798   1.420   1_455  A
C2797      C2802   1.436       .  A
C2797      H2804   1.083       .  S
C2798      C2799   1.410       .  A
C2799      C2800   1.398   1_655  A
C2799      C2806   1.516       .  S
C2800      C2801   1.433       .  A
C2800      H2805   1.073       .  S
C2801      C2802   1.431       .  A
C2802      C2803   1.501       .  S
C2803      H2807   1.111       .  S
C2803      H2808   1.109       .  S
C2803      H2809   1.105       .  S
C2806      H2810   1.103       .  S
C2806      H2811   1.106       .  S
C2806      H2812   1.110       .  S
C2813      C2814   1.425       .  A
C2813      C2818   1.416       .  A
C2813      H2820   1.081       .  S
C2814      C2815   1.438       .  A
C2815      C2816   1.406       .  A
C2815      C2822   1.489       .  S
C2816      C2817   1.389       .  A
C2816      H2821   1.079       .  S
C2817      C2818   1.411       .  A
C2818      C2819   1.505       .  S
C2819      H2823   1.110       .  S
C2819      H2824   1.111       .  S
C2819      H2825   1.105       .  S
C2822      H2826   1.097       .  S
C2822      H2827   1.103       .  S
C2822      H2828   1.111       .  S
C2829      C2830   1.421       .  A
C2829      C2834   1.396       .  A
C2829      H2836   1.080       .  S
C2830      C2831   1.429       .  A
C2831      C2832   1.433       .  A
C2831      C2838   1.503       .  S
C2832      C2833   1.420       .  A
C2832      H2837   1.083       .  S
C2833      C2834   1.416       .  A
C2834      C2835   1.510       .  S
C2835      H2839   1.111       .  S
C2835      H2840   1.111       .  S
C2835      H2841   1.096       .  S
C2838      H2842   1.106       .  S
C2838      H2843   1.111       .  S
C2838      H2844   1.108       .  S
C2845      C2846   1.399       .  A
C2845      C2850   1.412       .  A
C2845      H2852   1.077       .  S
C2846      C2847   1.410       .  A
C2847      C2848   1.419       .  A
C2847      C2854   1.505       .  S
C2848      C2849   1.425       .  A
C2848      H2853   1.079   1_455  S
C2849      C2850   1.437       .  A
C2850      C2851   1.500       .  S
C2851      H2855   1.105       .  S
C2851      H2856   1.111       .  S
C2851      H2857   1.095       .  S
C2854      H2858   1.109       .  S
C2854      H2859   1.104       .  S
C2854      H2860   1.111   1_455  S
C2861      C2862   1.420       .  A
C2861      C2866   1.390       .  A
C2861      H2868   1.078       .  S
C2862      C2863   1.428       .  A
C2863      C2864   1.431       .  A
C2863      C2870   1.505       .  S
C2864      C2865   1.419       .  A
C2864      H2869   1.084       .  S
C2865      C2866   1.413       .  A
C2866      C2867   1.512       .  S
C2867      H2871   1.111       .  S
C2867      H2872   1.111       .  S
C2867      H2873   1.099   1_554  S
C2870      H2874   1.105       .  S
C2870      H2875   1.106       .  S
C2870      H2876   1.110       .  S
C2877      C2878   1.414       .  A
C2877      C2882   1.392       .  A
C2877      H2884   1.070       .  S
C2878      C2879   1.438       .  A
C2879      C2880   1.426       .  A
C2879      C2886   1.504       .  S
C2880      C2881   1.412       .  A
C2880      H2885   1.083       .  S
C2881      C2882   1.406       .  A
C2882      C2883   1.512       .  S
C2883      H2887   1.111   1_556  S
C2883      H2888   1.097       .  S
C2883      H2889   1.108       .  S
C2886      H2890   1.109       .  S
C2886      H2891   1.099       .  S
C2886      H2892   1.111       .  S
C2893      C2894   1.419       .  A
C2893      C2898   1.416       .  A
C2893      H2900   1.084       .  S
C2894      C2895   1.433       .  A
C2895      C2896   1.410       .  A
C2895      C2902   1.493       .  S
C2896      C2897   1.400       .  A
C2896      H2901   1.081       .  S
C2897      C2898   1.418       .  A
C2898      C2899   1.504       .  S
C2899      H2903   1.111       .  S
C2899      H2904   1.110       .  S
C2899      H2905   1.106       .  S
C2902      H2906   1.106       .  S
C2902      H2907   1.100       .  S
C2902      H2908   1.112       .  S
C2909      C2910   1.393       .  A
C2909      C2914   1.388       .  A
C2909      H2916   1.085       .  S
C2910      C2911   1.423       .  A
C2911      C2912   1.432       .  A
C2911      C2918   1.502       .  S
C2912      C2913   1.420       .  A
C2912      H2917   1.081       .  S
C2913      C2914   1.436       .  A
C2914      C2915   1.510       .  S
C2915      H2919   1.112   1_556  S
C2915      H2920   1.107       .  S
C2915      H2921   1.101       .  S
C2918      H2922   1.110       .  S
C2918      H2923   1.107       .  S
C2918      H2924   1.109       .  S
C2925      C2926   1.408       .  A
C2925      C2930   1.411       .  A
C2925      H2932   1.079       .  S
C2926      C2927   1.415       .  A
C2927      C2928   1.403       .  A
C2927      C2934   1.504       .  S
C2928      C2929   1.402       .  A
C2928      H2933   1.057       .  S
C2929      C2930   1.420       .  A
C2930      C2931   1.500       .  S
C2931      H2935   1.112       .  S
C2931      H2936   1.110       .  S
C2931      H2937   1.107       .  S
C2934      H2938   1.110       .  S
C2934      H2939   1.109       .  S
C2934      H2940   1.111       .  S
C2941      C2942   1.415       .  A
C2941      C2946   1.420       .  A
C2941      H2948   1.075       .  S
C2942      C2943   1.411       .  A
C2943      C2944   1.401       .  A
C2943      C2950   1.504       .  S
C2944      C2945   1.420       .  A
C2944      H2949   1.076       .  S
C2945      C2946   1.423       .  A
C2946      C2947   1.505       .  S
C2947      H2951   1.110       .  S
C2947      H2952   1.103       .  S
C2947      H2953   1.109       .  S
C2950      H2954   1.096       .  S
C2950      H2955   1.110       .  S
C2950      H2956   1.111       .  S
C2957      C2958   1.415       .  A
C2957      C2962   1.403       .  A
C2957      H2964   1.083   1_554  S
C2958      C2959   1.427       .  A
C2959      C2960   1.422       .  A
C2959      C2966   1.503       .  S
C2960      C2961   1.411       .  A
C2960      H2965   1.083       .  S
C2961      C2962   1.417       .  A
C2962      C2963   1.509       .  S
C2963      H2967   1.111   1_554  S
C2963      H2968   1.107       .  S
C2963      H2969   1.110       .  S
C2966      H2970   1.108       .  S
C2966      H2971   1.106       .  S
C2966      H2972   1.111       .  S
C2973      C2974   1.415       .  A
C2973      C2978   1.429       .  A
C2973      H2980   1.083       .  S
C2974      C2975   1.415       .  A
C2975      C2976   1.389       .  A
C2975      C2982   1.516       .  S
C2976      C2977   1.418       .  A
C2976      H2981   1.077       .  S
C2977      C2978   1.426       .  A
C2978      C2979   1.502       .  S
C2979      H2983   1.110       .  S
C2979      H2984   1.107       .  S
C2979      H2985   1.109       .  S
C2982      H2986   1.101   1_556  S
C2982      H2987   1.111   1_556  S
C2982      H2988   1.110       .  S
C2989      C2990   1.408       .  A
C2989      C2994   1.391       .  A
C2989      H2996   1.073       .  S
C2990      C2991   1.424       .  A
C2991      C2992   1.399       .  A
C2991      C2998   1.502       .  S
C2992      C2993   1.400       .  A
C2992      H2997   1.074       .  S
C2993      C2994   1.412       .  A
C2994      C2995   1.504       .  S
C2995      H2999   1.109       .  S
C2995      H3000   1.111       .  S
C2995      H3001   1.096       .  S
C2998      H3002   1.110       .  S
C2998      H3003   1.094       .  S
C2998      H3004   1.111       .  S
C3005      C3006   1.413       .  A
C3005      C3010   1.415       .  A
C3005      H3012   1.084       .  S
C3006      C3007   1.406       .  A
C3007      C3008   1.382       .  A
C3007      C3014   1.510       .  S
C3008      C3009   1.408       .  A
C3008      H3013   1.083       .  S
C3009      C3010   1.424       .  A
C3010      C3011   1.504       .  S
C3011      H3015   1.111       .  S
C3011      H3016   1.103       .  S
C3011      H3017   1.110       .  S
C3014      H3018   1.098       .  S
C3014      H3019   1.110       .  S
C3014      H3020   1.111       .  S
C3021      C3022   1.392       .  A
C3021      C3026   1.394       .  A
C3021      H3028   1.085       .  S
C3022      C3023   1.425       .  A
C3023      C3024   1.401       .  A
C3023      C3030   1.495       .  S
C3024      C3025   1.399       .  A
C3024      H3029   1.081       .  S
C3025      C3026   1.422       .  A
C3026      C3027   1.487       .  S
C3027      H3031   1.111       .  S
C3027      H3032   1.103       .  S
C3027      H3033   1.097       .  S
C3030      H3034   1.091       .  S
C3030      H3035   1.112       .  S
C3030      H3036   1.109       .  S
C3037      C3038   1.415       .  A
C3037      C3042   1.423       .  A
C3037      H3044   1.083       .  S
C3038      C3039   1.406       .  A
C3039      C3040   1.381       .  A
C3039      C3046   1.512       .  S
C3040      C3041   1.416       .  A
C3040      H3045   1.079       .  S
C3041      C3042   1.421       .  A
C3042      C3043   1.501       .  S
C3043      H3047   1.111       .  S
C3043      H3048   1.108       .  S
C3043      H3049   1.107       .  S
C3046      H3050   1.106       .  S
C3046      H3051   1.105       .  S
C3046      H3052   1.111       .  S
C3053      C3054   1.395       .  A
C3053      C3058   1.389       .  A
C3053      H3060   1.085       .  S
C3054      C3055   1.411       .  A
C3055      C3056   1.410       .  A
C3055      C3062   1.509       .  S
C3056      C3057   1.415       .  A
C3056      H3061   1.070       .  S
C3057      C3058   1.427       .  A
C3058      C3059   1.510       .  S
C3059      H3063   1.112       .  S
C3059      H3064   1.109       .  S
C3059      H3065   1.105       .  S
C3062      H3066   1.108       .  S
C3062      H3067   1.103       .  S
C3062      H3068   1.111       .  S
C3069      C3070   1.404       .  A
C3069      C3074   1.398       .  A
C3069      H3076   1.083       .  S
C3070      C3071   1.414       .  A
C3071      C3072   1.400       .  A
C3071      C3078   1.508       .  S
C3072      C3073   1.409       .  A
C3072      H3077   1.080       .  S
C3073      C3074   1.417       .  A
C3074      C3075   1.503       .  S
C3075      H3079   1.111       .  S
C3075      H3080   1.110       .  S
C3075      H3081   1.097       .  S
C3078      H3082   1.103       .  S
C3078      H3083   1.110       .  S
C3078      H3084   1.111       .  S
C3085      C3086   1.410       .  A
C3085      C3090   1.415       .  A
C3085      H3092   1.080       .  S
C3086      C3087   1.419       .  A
C3087      C3088   1.386       .  A
C3087      C3094   1.512       .  S
C3088      C3089   1.404       .  A
C3088      H3093   1.082       .  S
C3089      C3090   1.419       .  A
C3090      C3091   1.499       .  S
C3091      H3095   1.111       .  S
C3091      H3096   1.107       .  S
C3091      H3097   1.106       .  S
C3094      H3098   1.103       .  S
C3094      H3099   1.094       .  S
C3094      H3100   1.109       .  S
C3101      C3102   1.403       .  A
C3101      C3106   1.398       .  A
C3101      H3108   1.077       .  S
C3102      C3103   1.421       .  A
C3103      C3104   1.394       .  A
C3103      C3110   1.506       .  S
C3104      C3105   1.402       .  A
C3104      H3109   1.086       .  S
C3105      C3106   1.422       .  A
C3106      C3107   1.504       .  S
C3107      H3111   1.112       .  S
C3107      H3112   1.102       .  S
C3107      H3113   1.109       .  S
C3110      H3114   1.097       .  S
C3110      H3115   1.107       .  S
C3110      H3116   1.101       .  S
C3117      C3118   1.404       .  A
C3117      C3122   1.402       .  A
C3117      H3124   1.075       .  S
C3118      C3119   1.417       .  A
C3119      C3120   1.392       .  A
C3119      C3126   1.499       .  S
C3120      C3121   1.400       .  A
C3120      H3125   1.085       .  S
C3121      C3122   1.419       .  A
C3122      C3123   1.504       .  S
C3123      H3127   1.111       .  S
C3123      H3128   1.107       .  S
C3123      H3129   1.105       .  S
C3126      H3130   1.109       .  S
C3126      H3131   1.101       .  S
C3126      H3132   1.111       .  S
C3133      C3134   1.412       .  A
C3133      C3138   1.416       .  A
C3133      H3140   1.078       .  S
C3134      C3135   1.408       .  A
C3135      C3136   1.390       .  A
C3135      C3142   1.508       .  S
C3136      C3137   1.407       .  A
C3136      H3141   1.077       .  S
C3137      C3138   1.427       .  A
C3138      C3139   1.499       .  S
C3139      H3143   1.110       .  S
C3139      H3144   1.102       .  S
C3139      H3145   1.104       .  S
C3142      H3146   1.095       .  S
C3142      H3147   1.108       .  S
C3142      H3148   1.112       .  S
C3149      C3150   1.408       .  A
C3149      C3154   1.402       .  A
C3149      H3156   1.076       .  S
C3150      C3151   1.421       .  A
C3151      C3152   1.393       .  A
C3151      C3158   1.499       .  S
C3152      C3153   1.399       .  A
C3152      H3157   1.086       .  S
C3153      C3154   1.417       .  A
C3154      C3155   1.510       .  S
C3155      H3159   1.111       .  S
C3155      H3160   1.103       .  S
C3155      H3161   1.103       .  S
C3158      H3162   1.099       .  S
C3158      H3163   1.109       .  S
C3158      H3164   1.112       .  S
C3165      C3166   1.408       .  A
C3165      C3170   1.385       .  A
C3165      H3172   1.077       .  S
C3166      C3167   1.432       .  A
C3167      C3168   1.420       .  A
C3167      C3174   1.502       .  S
C3168      C3169   1.411       .  A
C3168      H3173   1.082       .  S
C3169      C3170   1.408       .  A
C3170      C3171   1.502       .  S
C3171      H3175   1.108       .  S
C3171      H3176   1.105       .  S
C3171      H3177   1.090       .  S
C3174      H3178   1.103       .  S
C3174      H3179   1.107       .  S
C3174      H3180   1.111       .  S
C3181      C3182   1.409       .  A
C3181      C3186   1.414       .  A
C3181      H3188   1.072       .  S
C3182      C3183   1.423       .  A
C3183      C3184   1.392       .  A
C3183      C3190   1.505       .  S
C3184      C3185   1.396       .  A
C3184      H3189   1.084       .  S
C3185      C3186   1.422       .  A
C3186      C3187   1.509       .  S
C3187      H3191   1.105       .  S
C3187      H3192   1.110       .  S
C3187      H3193   1.110       .  S
C3190      H3194   1.111       .  S
C3190      H3195   1.106       .  S
C3190      H3196   1.111       .  S
C3197      C3198   1.418       .  A
C3197      C3202   1.417       .  A
C3197      H3204   1.076       .  S
C3198      C3199   1.427       .  A
C3199      C3200   1.395       .  A
C3199      C3206   1.495       .  S
C3200      C3201   1.391       .  A
C3200      H3205   1.079       .  S
C3201      C3202   1.413       .  A
C3202      C3203   1.505       .  S
C3203      H3207   1.108       .  S
C3203      H3208   1.110       .  S
C3203      H3209   1.108       .  S
C3206      H3210   1.105       .  S
C3206      H3211   1.097       .  S
C3206      H3212   1.112       .  S
C3213      C3214   1.407       .  A
C3213      C3218   1.403       .  A
C3213      H3220   1.084       .  S
C3214      C3215   1.413       .  A
C3215      C3216   1.400       .  A
C3215      C3222   1.504       .  S
C3216      C3217   1.408       .  A
C3216      H3221   1.084       .  S
C3217      C3218   1.413       .  A
C3218      C3219   1.507       .  S
C3219      H3223   1.111       .  S
C3219      H3224   1.107       .  S
C3219      H3225   1.110       .  S
C3222      H3226   1.106       .  S
C3222      H3227   1.110       .  S
C3222      H3228   1.110       .  S
C3229      C3230   1.410       .  A
C3229      C3234   1.413       .  A
C3229      H3236   1.070       .  S
C3230      C3231   1.412       .  A
C3231      C3232   1.390       .  A
C3231      C3238   1.506       .  S
C3232      C3233   1.420       .  A
C3232      H3237   1.079       .  S
C3233      C3234   1.421       .  A
C3234      C3235   1.503       .  S
C3235      H3239   1.111       .  S
C3235      H3240   1.109       .  S
C3235      H3241   1.106       .  S
C3238      H3242   1.110       .  S
C3238      H3243   1.105       .  S
C3238      H3244   1.112       .  S
C3245      C3246   1.412       .  A
C3245      C3250   1.412       .  A
C3245      H3252   1.071       .  S
C3246      C3247   1.405       .  A
C3247      C3248   1.393       .  A
C3247      C3254   1.509       .  S
C3248      C3249   1.422       .  A
C3248      H3253   1.080       .  S
C3249      C3250   1.421       .  A
C3250      C3251   1.505       .  S
C3251      H3255   1.111       .  S
C3251      H3256   1.106       .  S
C3251      H3257   1.110       .  S
C3254      H3258   1.111       .  S
C3254      H3259   1.104       .  S
C3254      H3260   1.104       .  S
C3261      C3262   1.405       .  A
C3261      C3266   1.396       .  A
C3261      H3268   1.050       .  S
C3262      C3263   1.416       .  A
C3263      C3264   1.406       .  A
C3263      C3270   1.506       .  S
C3264      C3265   1.406       .  A
C3264      H3269   1.066       .  S
C3265      C3266   1.403       .  A
C3266      C3267   1.504       .  S
C3267      H3271   1.111       .  S
C3267      H3272   1.107       .  S
C3267      H3273   1.110       .  S
C3270      H3274   1.109       .  S
C3270      H3275   1.111       .  S
C3270      H3276   1.110       .  S
C3277      C3278   1.406       .  A
C3277      C3282   1.404       .  A
C3277      H3284   1.073       .  S
C3278      C3279   1.411       .  A
C3279      C3280   1.400       .  A
C3279      C3286   1.512       .  S
C3280      C3281   1.406       .  A
C3280      H3285   1.076       .  S
C3281      C3282   1.428       .  A
C3282      C3283   1.504       .  S
C3283      H3287   1.105       .  S
C3283      H3288   1.111       .  S
C3283      H3289   1.093       .  S
C3286      H3290   1.111       .  S
C3286      H3291   1.105       .  S
C3286      H3292   1.111       .  S
C3293      C3294   1.395       .  A
C3293      C3298   1.398       .  A
C3293      H3300   1.083       .  S
C3294      C3295   1.416       .  A
C3295      C3296   1.400       .  A
C3295      C3302   1.511       .  S
C3296      C3297   1.406       .  A
C3296      H3301   1.065       .  S
C3297      C3298   1.424       .  A
C3298      C3299   1.503       .  S
C3299      H3303   1.111       .  S
C3299      H3304   1.106       .  S
C3299      H3305   1.110       .  S
C3302      H3306   1.110       .  S
C3302      H3307   1.109       .  S
C3302      H3308   1.111       .  S
C3309      C3310   1.408       .  A
C3309      C3314   1.409       .  A
C3309      H3316   1.080       .  S
C3310      C3311   1.414       .  A
C3311      C3312   1.396       .  A
C3311      C3318   1.511       .  S
C3312      C3313   1.414       .  A
C3312      H3317   1.081       .  S
C3313      C3314   1.415       .  A
C3314      C3315   1.498       .  S
C3315      H3319   1.111       .  S
C3315      H3320   1.108       .  S
C3315      H3321   1.106       .  S
C3318      H3322   1.106       .  S
C3318      H3323   1.108       .  S
C3318      H3324   1.111       .  S
C3325      C3326   1.400       .  A
C3325      C3330   1.403       .  A
C3325      H3332   1.083       .  S
C3326      C3327   1.422       .  A
C3327      C3328   1.408       .  A
C3327      C3334   1.505       .  S
C3328      C3329   1.402       .  A
C3328      H3333   1.084       .  S
C3329      C3330   1.423       .  A
C3330      C3331   1.502       .  S
C3331      H3335   1.111       .  S
C3331      H3336   1.109       .  S
C3331      H3337   1.104       .  S
C3334      H3338   1.107       .  S
C3334      H3339   1.110       .  S
C3334      H3340   1.110       .  S
C3341      C3342   1.412       .  A
C3341      C3346   1.384       .  A
C3341      H3348   1.077       .  S
C3342      C3343   1.430       .  A
C3343      C3344   1.425       .  A
C3343      C3350   1.503       .  S
C3344      C3345   1.411       .  A
C3344      H3349   1.083       .  S
C3345      C3346   1.414       .  A
C3346      C3347   1.506       .  S
C3347      H3351   1.112       .  S
C3347      H3352   1.106       .  S
C3347      H3353   1.105       .  S
C3350      H3354   1.108       .  S
C3350      H3355   1.109       .  S
C3350      H3356   1.110       .  S
C3357      C3358   1.394       .  A
C3357      C3362   1.396       .  A
C3357      H3364   1.077       .  S
C3358      C3359   1.409       .  A
C3359      C3360   1.415       .  A
C3359      C3366   1.506       .  S
C3360      C3361   1.416       .  A
C3360      H3365   1.066       .  S
C3361      C3362   1.431       .  A
C3362      C3363   1.506       .  S
C3363      H3367   1.112       .  S
C3363      H3368   1.106       .  S
C3363      H3369   1.104       .  S
C3366      H3370   1.107       .  S
C3366      H3371   1.110       .  S
C3366      H3372   1.111       .  S
C3373      C3374   1.404       .  A
C3373      C3378   1.420       .  A
C3373      H3380   1.085       .  S
C3374      C3375   1.407       .  A
C3375      C3376   1.389       .  A
C3375      C3382   1.515       .  S
C3376      C3377   1.425       .  A
C3376      H3381   1.078       .  S
C3377      C3378   1.438       .  A
C3378      C3379   1.501       .  S
C3379      H3383   1.110       .  S
C3379      H3384   1.101       .  S
C3379      H3385   1.102       .  S
C3382      H3386   1.106       .  S
C3382      H3387   1.111       .  S
C3382      H3388   1.111       .  S
C3389      C3390   1.420       .  A
C3389      C3394   1.420       .  A
C3389      H3396   1.075       .  S
C3390      C3391   1.430       .  A
C3391      C3392   1.389   1_545  A
C3391      C3398   1.510   1_545  S
C3392      C3393   1.393       .  A
C3392      H3397   1.081       .  S
C3393      C3394   1.415   1_565  A
C3394      C3395   1.506       .  S
C3395      H3399   1.111       .  S
C3395      H3400   1.110   1_545  S
C3395      H3401   1.106       .  S
C3398      H3402   1.109       .  S
C3398      H3403   1.106       .  S
C3398      H3404   1.110       .  S
C3405      C3406   1.418   1_545  A
C3405      C3410   1.416       .  A
C3405      H3412   1.075       .  S
C3406      C3407   1.426       .  A
C3407      C3408   1.396   1_565  A
C3407      C3414   1.500       .  S
C3408      C3409   1.396       .  A
C3408      H3413   1.085       .  S
C3409      C3410   1.417       .  A
C3410      C3411   1.500       .  S
C3411      H3415   1.111       .  S
C3411      H3416   1.108       .  S
C3411      H3417   1.109       .  S
C3414      H3418   1.105       .  S
C3414      H3419   1.109       .  S
C3414      H3420   1.109       .  S
C3421      C3422   1.410       .  A
C3421      C3426   1.415       .  A
C3421      H3428   1.084       .  S
C3422      C3423   1.423       .  A
C3423      C3424   1.402       .  A
C3423      C3430   1.501       .  S
C3424      C3425   1.402       .  A
C3424      H3429   1.077       .  S
C3425      C3426   1.424       .  A
C3426      C3427   1.503       .  S
C3427      H3431   1.102       .  S
C3427      H3432   1.111       .  S
C3427      H3433   1.107       .  S
C3430      H3434   1.099       .  S
C3430      H3435   1.109       .  S
C3430      H3436   1.112       .  S
C3437      C3438   1.399   1_455  A
C3437      C3442   1.393       .  A
C3437      H3444   1.077   1_455  S
C3438      C3439   1.415   1_655  A
C3439      C3440   1.421       .  A
C3439      C3446   1.504       .  S
C3440      C3441   1.418       .  A
C3440      H3445   1.070       .  S
C3441      C3442   1.421       .  A
C3442      C3443   1.508       .  S
C3443      H3447   1.110       .  S
C3443      H3448   1.110       .  S
C3443      H3449   1.107       .  S
C3446      H3450   1.104   1_455  S
C3446      H3451   1.110       .  S
C3446      H3452   1.111       .  S
C3453      C3454   1.413       .  A
C3453      C3458   1.390       .  A
C3453      H3460   1.074       .  S
C3454      C3455   1.426       .  A
C3455      C3456   1.426       .  A
C3455      C3462   1.502       .  S
C3456      C3457   1.416       .  A
C3456      H3461   1.079       .  S
C3457      C3458   1.415       .  A
C3458      C3459   1.511       .  S
C3459      H3463   1.111       .  S
C3459      H3464   1.105       .  S
C3459      H3465   1.101       .  S
C3462      H3466   1.106       .  S
C3462      H3467   1.110       .  S
C3462      H3468   1.111       .  S
C3469      C3470   1.398       .  A
C3469      C3474   1.401       .  A
C3469      H3476   1.084       .  S
C3470      C3471   1.411       .  A
C3471      C3472   1.413       .  A
C3471      C3478   1.507       .  S
C3472      C3473   1.415       .  A
C3472      H3477   1.084   1_455  S
C3473      C3474   1.427       .  A
C3474      C3475   1.498       .  S
C3475      H3479   1.112       .  S
C3475      H3480   1.097       .  S
C3475      H3481   1.108       .  S
C3478      H3482   1.103       .  S
C3478      H3483   1.107       .  S
C3478      H3484   1.111   1_455  S
C3485      C3486   1.430       .  A
C3485      C3490   1.405       .  A
C3485      H3492   1.076       .  S
C3486      C3487   1.442       .  A
C3487      C3488   1.413       .  A
C3487      C3494   1.494       .  S
C3488      C3489   1.392       .  A
C3488      H3493   1.082       .  S
C3489      C3490   1.403       .  A
C3490      C3491   1.505       .  S
C3491      H3495   1.110       .  S
C3491      H3496   1.110       .  S
C3491      H3497   1.106       .  S
C3494      H3498   1.097       .  S
C3494      H3499   1.103       .  S
C3494      H3500   1.112       .  S
C3501      C3502   1.395       .  A
C3501      C3506   1.390       .  A
C3501      H3508   1.086   1_556  S
C3502      C3503   1.422       .  A
C3503      C3504   1.422       .  A
C3503      C3510   1.503       .  S
C3504      C3505   1.416       .  A
C3504      H3509   1.081       .  S
C3505      C3506   1.430       .  A
C3506      C3507   1.509       .  S
C3507      H3511   1.110   1_556  S
C3507      H3512   1.109       .  S
C3507      H3513   1.106       .  S
C3510      H3514   1.106       .  S
C3510      H3515   1.110       .  S
C3510      H3516   1.111       .  S
C3517      C3518   1.395       .  A
C3517      C3522   1.413       .  A
C3517      H3524   1.083       .  S
C3518      C3519   1.409       .  A
C3519      C3520   1.401       .  A
C3519      C3526   1.506       .  S
C3520      C3521   1.421       .  A
C3520      H3525   1.082       .  S
C3521      C3522   1.438       .  A
C3522      C3523   1.489       .  S
C3523      H3527   1.111       .  S
C3523      H3528   1.104       .  S
C3523      H3529   1.103       .  S
C3526      H3530   1.103       .  S
C3526      H3531   1.110       .  S
C3526      H3532   1.111       .  S
C3533      C3534   1.415       .  A
C3533      C3538   1.403       .  A
C3533      H3540   1.064       .  S
C3534      C3535   1.425       .  A
C3535      C3536   1.408       .  A
C3535      C3542   1.503       .  S
C3536      C3537   1.402       .  A
C3536      H3541   1.084       .  S
C3537      C3538   1.408       .  A
C3538      C3539   1.505       .  S
C3539      H3543   1.110       .  S
C3539      H3544   1.110       .  S
C3539      H3545   1.110       .  S
C3542      H3546   1.107   1_554  S
C3542      H3547   1.108   1_554  S
C3542      H3548   1.110       .  S
C3549      C3550   1.395       .  A
C3549      C3554   1.403       .  A
C3549      H3556   1.081       .  S
C3550      C3551   1.415       .  A
C3551      C3552   1.421       .  A
C3551      C3558   1.504       .  S
C3552      C3553   1.425       .  A
C3552      H3557   1.074       .  S
C3553      C3554   1.426       .  A
C3554      C3555   1.481       .  S
C3555      H3559   1.112       .  S
C3555      H3560   1.096       .  S
C3555      H3561   1.100       .  S
C3558      H3562   1.101       .  S
C3558      H3563   1.110       .  S
C3558      H3564   1.110       .  S
C3565      C3566   1.413       .  A
C3565      C3570   1.423       .  A
C3565      H3572   1.084       .  S
C3566      C3567   1.401       .  A
C3567      C3568   1.385       .  A
C3567      C3574   1.507       .  S
C3568      C3569   1.424       .  A
C3568      H3573   1.077       .  S
C3569      C3570   1.432       .  A
C3570      C3571   1.501       .  S
C3571      H3575   1.110       .  S
C3571      H3576   1.106       .  S
C3571      H3577   1.108       .  S
C3574      H3578   1.105       .  S
C3574      H3579   1.109       .  S
C3574      H3580   1.111       .  S
C3581      C3582   1.410       .  A
C3581      C3586   1.411       .  A
C3581      H3588   1.085       .  S
C3582      C3583   1.426       .  A
C3583      C3584   1.395       .  A
C3583      C3590   1.515       .  S
C3584      C3585   1.400       .  A
C3584      H3589   1.072       .  S
C3585      C3586   1.430       .  A
C3586      C3587   1.510       .  S
C3587      H3591   1.111       .  S
C3587      H3592   1.105       .  S
C3587      H3593   1.111       .  S
C3590      H3594   1.110       .  S
C3590      H3595   1.107       .  S
C3590      H3596   1.111       .  S
C3597      C3598   1.389       .  A
C3597      C3602   1.375       .  A
C3597      H3604   1.050       .  S
C3598      C3599   1.423       .  A
C3599      C3600   1.420       .  A
C3599      C3606   1.501       .  S
C3600      C3601   1.413       .  A
C3600      H3605   1.083       .  S
C3601      C3602   1.399       .  A
C3602      C3603   1.504       .  S
C3603      H3607   1.110       .  S
C3603      H3608   1.102       .  S
C3603      H3609   1.110       .  S
C3606      H3610   1.110       .  S
C3606      H3611   1.107       .  S
C3606      H3612   1.110       .  S
C3613      C3614   1.418       .  A
C3613      C3618   1.414       .  A
C3613      H3620   1.063       .  S
C3614      C3615   1.420       .  A
C3615      C3616   1.382       .  A
C3615      C3622   1.511       .  S
C3616      C3617   1.396       .  A
C3616      H3621   1.080       .  S
C3617      C3618   1.410       .  A
C3618      C3619   1.505       .  S
C3619      H3623   1.110       .  S
C3619      H3624   1.109       .  S
C3619      H3625   1.107       .  S
C3622      H3626   1.106       .  S
C3622      H3627   1.113       .  S
C3622      H3628   1.102       .  S
C3629      C3630   1.409       .  A
C3629      C3634   1.389       .  A
C3629      H3636   1.065       .  S
C3630      C3631   1.433       .  A
C3631      C3632   1.422       .  A
C3631      C3638   1.498       .  S
C3632      C3633   1.408       .  A
C3632      H3637   1.083       .  S
C3633      C3634   1.401       .  A
C3634      C3635   1.504       .  S
C3635      H3639   1.103       .  S
C3635      H3640   1.111       .  S
C3635      H3641   1.106       .  S
C3638      H3642   1.104       .  S
C3638      H3643   1.110       .  S
C3638      H3644   1.111       .  S
C3645      C3646   1.397       .  A
C3645      C3650   1.401       .  A
C3645      H3652   1.085       .  S
C3646      C3647   1.417       .  A
C3647      C3648   1.416       .  A
C3647      C3654   1.503       .  S
C3648      C3649   1.417       .  A
C3648      H3653   1.070       .  S
C3649      C3650   1.435       .  A
C3650      C3651   1.509       .  S
C3651      H3655   1.112       .  S
C3651      H3656   1.109       .  S
C3651      H3657   1.109       .  S
C3654      H3658   1.110       .  S
C3654      H3659   1.106       .  S
C3654      H3660   1.111       .  S
C3661      C3662   1.411       .  A
C3661      C3666   1.417       .  A
C3661      H3668   1.083       .  S
C3662      C3663   1.415       .  A
C3663      C3664   1.396       .  A
C3663      C3670   1.506       .  S
C3664      C3665   1.404       .  A
C3664      H3669   1.077       .  S
C3665      C3666   1.423       .  A
C3666      C3667   1.504       .  S
C3667      H3671   1.110       .  S
C3667      H3672   1.109       .  S
C3667      H3673   1.111       .  S
C3670      H3674   1.107       .  S
C3670      H3675   1.110       .  S
C3670      H3676   1.111       .  S
C3677      C3678   1.405       .  A
C3677      C3682   1.417       .  A
C3677      H3684   1.084       .  S
C3678      C3679   1.411       .  A
C3679      C3680   1.396       .  A
C3679      C3686   1.505       .  S
C3680      C3681   1.400       .  A
C3680      H3685   1.050       .  S
C3681      C3682   1.429       .  A
C3682      C3683   1.505       .  S
C3683      H3687   1.111       .  S
C3683      H3688   1.110       .  S
C3683      H3689   1.107       .  S
C3686      H3690   1.099       .  S
C3686      H3691   1.110       .  S
C3686      H3692   1.111       .  S
C3693      C3694   1.414       .  A
C3693      C3698   1.417       .  A
C3693      H3700   1.083       .  S
C3694      C3695   1.404       .  A
C3695      C3696   1.373       .  A
C3695      C3702   1.517       .  S
C3696      C3697   1.417       .  A
C3696      H3701   1.078       .  S
C3697      C3698   1.422       .  A
C3698      C3699   1.502       .  S
C3699      H3703   1.111       .  S
C3699      H3704   1.106       .  S
C3699      H3705   1.109       .  S
C3702      H3706   1.104       .  S
C3702      H3707   1.104       .  S
C3702      H3708   1.111       .  S
C3709      C3710   1.402       .  A
C3709      C3714   1.381       .  A
C3709      H3716   1.083       .  S
C3710      C3711   1.423       .  A
C3711      C3712   1.414       .  A
C3711      C3718   1.504       .  S
C3712      C3713   1.414       .  A
C3712      H3717   1.080       .  S
C3713      C3714   1.417       .  A
C3714      C3715   1.508       .  S
C3715      H3719   1.112       .  S
C3715      H3720   1.106       .  S
C3715      H3721   1.102       .  S
C3718      H3722   1.109       .  S
C3718      H3723   1.108       .  S
C3718      H3724   1.111       .  S
C3725      C3726   1.409       .  A
C3725      C3730   1.401       .  A
C3725      H3732   1.085       .  S
C3726      C3727   1.428       .  A
C3727      C3728   1.399       .  A
C3727      C3734   1.505       .  S
C3728      C3729   1.399       .  A
C3728      H3733   1.082       .  S
C3729      C3730   1.415       .  A
C3730      C3731   1.507       .  S
C3731      H3735   1.110       .  S
C3731      H3736   1.107       .  S
C3731      H3737   1.110       .  S
C3734      H3738   1.096       .  S
C3734      H3739   1.110       .  S
C3734      H3740   1.112       .  S
C3741      C3742   1.403       .  A
C3741      C3746   1.406       .  A
C3741      H3748   1.083       .  S
C3742      C3743   1.416       .  A
C3743      C3744   1.404       .  A
C3743      C3750   1.504       .  S
C3744      C3745   1.408       .  A
C3744      H3749   1.083       .  S
C3745      C3746   1.421       .  A
C3746      C3747   1.506       .  S
C3747      H3751   1.110       .  S
C3747      H3752   1.109       .  S
C3747      H3753   1.111       .  S
C3750      H3754   1.107       .  S
C3750      H3755   1.110       .  S
C3750      H3756   1.111       .  S
