geometry optimzed in LAMMPS
_audit_creation_date              2020-11-30 
_audit_creation_method            'lammps2cif' 
_symmetry_space_group_name_H-M    'P1' 
_symmetry_Int_Tables_number       1 
_symmetry_cell_setting            triclinic 
loop_ 
_symmetry_equiv_pos_as_xyz 
  x,y,z 
_cell_length_a                    36.9740169 
_cell_length_b                    36.98202707932102 
_cell_length_c                    36.980814518036354 
_cell_angle_alpha                 90.00566418857173 
_cell_angle_beta                  89.99524581000169 
_cell_angle_gamma                 89.99601783623702 
loop_ 
_atom_site_label 
_atom_site_type_symbol 
_atom_site_fract_x 
_atom_site_fract_y 
_atom_site_fract_z 
_atom_site_charge 
O1          O  0.58705686  0.98237965  0.46980105    -0.77600
O2          O  0.43852991  0.95176802  0.51260025    -0.77700
O3          O  0.50791650  0.93424565  0.55019936    -0.77700
O4          O  0.48767362  0.94241683  0.45147967    -0.77600
O5          O  0.46825685  0.96906104  0.57555568    -0.77700
O6          O  0.52814183  0.97716133  0.42383504    -0.77700
O7          O  0.41644625  0.96608427  0.45958557    -0.77600
O8          O  0.56795843  0.93884506  0.50576789    -0.77700
C9          C  0.58887747  0.95013580  0.48086961     1.12000
C10         C  0.41328384  0.94861698  0.48915274     1.11900
C11         C  0.48764355  0.94065111  0.57661584     1.12100
C12         C  0.50735046  0.94907631  0.42432891     1.11900
O13         O  0.50634299  0.04935458  0.45168474    -0.77600
O14         O  0.48487974  0.04146150  0.55149853    -0.77700
O15         O  0.58400886  0.00840648  0.53731915    -0.77700
O16         O  0.43764324  0.03110182  0.48838945    -0.77600
O17         O  0.41543110  0.01593855  0.54148306    -0.77700
O18         O  0.56407083  0.04992728  0.49914890    -0.77700
O19         O  0.47041632  0.01263454  0.42458831    -0.77600
O20         O  0.52341645  0.00681016  0.58126259    -0.77700
Co21       Co  0.54413245  0.01424531  0.46336700     1.51500
Co22       Co  0.46350465  0.99866688  0.52901307     1.51700
Co23       Co  0.54365137  0.97248285  0.54120463     1.51600
Co24       Co  0.46431027  0.98486706  0.47252190     1.51500
O25         O  0.51096682  0.99242340  0.50154398    -1.39600
C26         C  0.49019915  0.04076325  0.42321301     1.12000
C27         C  0.50206933  0.03439260  0.58010755     1.12100
C28         C  0.58465014  0.04040552  0.52504913     1.12000
C29         C  0.41274383  0.03416757  0.51236444     1.12000
O30         O  0.98978087  0.58154103  0.52873083    -0.77600
O31         O  0.98956071  0.41855977  0.47048524    -0.77700
O32         O  0.94598061  0.50069071  0.44858340    -0.77700
O33         O  0.94487672  0.49986390  0.54940262    -0.77600
O34         O  0.98763420  0.46995407  0.42057265    -0.77700
O35         O  0.98630178  0.53009228  0.57838038    -0.77700
O36         O  0.94473050  0.44421150  0.49911268    -0.77600
O37         O  0.94530481  0.55646023  0.49904560    -0.77700
C38         C  0.95642297  0.57996338  0.52140762     1.12000
C39         C  0.95610354  0.42042171  0.47724998     1.11900
C40         C  0.95666089  0.48531101  0.42033993     1.12100
C41         C  0.95498072  0.51545842  0.57773667     1.11900
O42         O  0.05604785  0.50107225  0.55134638    -0.77600
O43         O  0.05708389  0.49822349  0.44903817    -0.77700
O44         O  0.01441434  0.58007831  0.46840706    -0.77700
O45         O  0.01314114  0.41985092  0.53112961    -0.77600
O46         O  0.05767675  0.44454041  0.50098964    -0.77700
O47         O  0.05819647  0.55506353  0.49940121    -0.77700
O48         O  0.01355060  0.47223570  0.57991478    -0.77600
O49         O  0.01568830  0.52744879  0.41938538    -0.77700
Co50       Co  0.02236646  0.53864949  0.53626795     1.51500
Co51       Co  0.02270573  0.46108716  0.46346064     1.51700
Co52       Co  0.98054788  0.53804332  0.46211806     1.51600
Co53       Co  0.97937469  0.46218967  0.53660809     1.51500
O54         O  0.00126625  0.50001582  0.49960947    -1.39600
C55         C  0.04481726  0.48692584  0.57999449     1.12000
C56         C  0.04667776  0.51208218  0.41996984     1.12100
C57         C  0.04759121  0.57828673  0.47657822     1.12000
C58         C  0.04650683  0.42145174  0.52363770     1.12000
O59         O  0.45559700  0.50039704  0.05768727    -0.77600
O60         O  0.55850661  0.50000993  0.06006388    -0.77700
O61         O  0.47766372  0.41757262  0.02149336    -0.77700
O62         O  0.53863359  0.57850150  0.01376249    -0.77600
O63         O  0.50763601  0.44475279  0.06479087    -0.77700
O64         O  0.50655059  0.55602452  0.05826183    -0.77700
O65         O  0.58841654  0.52630231  0.01722123    -0.77600
O66         O  0.42818088  0.46908584  0.01627485    -0.77700
C67         C  0.42746476  0.48495738  0.04694550     1.12000
C68         C  0.58797948  0.51211745  0.04877136     1.11900
C69         C  0.48506296  0.42089019  0.05476406     1.12100
C70         C  0.52993813  0.57852869  0.04686569     1.11900
O71         O  0.47803365  0.57832470  0.98863328    -0.77600
O72         O  0.53910722  0.41482092  0.99936404    -0.77700
O73         O  0.46146413  0.49191457  0.94672421    -0.77700
O74         O  0.55820988  0.49581156  0.94937693    -0.77600
O75         O  0.58748852  0.46769008  0.99202026    -0.77700
O76         O  0.43016023  0.52451256  0.98464228    -0.77700
O77         O  0.50818692  0.55186384  0.94551903    -0.77600
O78         O  0.51145411  0.43708942  0.95235684    -0.77700
Co79       Co  0.47071253  0.53640896  0.02236054     1.51500
Co80       Co  0.54504724  0.46009238  0.02862351     1.51700
Co81       Co  0.47286054  0.45723473  0.98445328     1.51600
Co82       Co  0.54519273  0.53496867  0.98188079     1.51500
O83         O  0.50847107  0.49722992  0.00456894    -1.39600
C84         C  0.48569735  0.57580846  0.95548880     1.12000
C85         C  0.53300087  0.41418601  0.96581782     1.12100
C86         C  0.43279872  0.50832298  0.95402055     1.12000
C87         C  0.58695410  0.48169809  0.96030597     1.12000
C88         C  0.58785085  0.90190758  0.78183718     0.05600
C89         C  0.61598664  0.87595622  0.78362583    -0.10500
C90         C  0.62225090  0.85174444  0.75452727     0.03100
C91         C  0.59989903  0.85411166  0.72355618    -0.09100
C92         C  0.57169890  0.87982566  0.72175531     0.05600
C93         C  0.56593563  0.90328987  0.75095464    -0.08500
H94         H  0.63299386  0.87470960  0.80744655     0.11200
H95         H  0.60452957  0.83611227  0.70088467     0.08700
H96         H  0.54443507  0.92319361  0.74941723     0.08600
C97         C  0.73177200  0.72208182  0.78266740     0.82700
N98         N  0.70513261  0.74777559  0.78263758    -0.75600
C99         C  0.70430137  0.77416027  0.75669245     0.85200
N100        N  0.73055507  0.77464703  0.73065705    -0.75500
C101        C  0.75735549  0.74919207  0.73032994     0.85200
N102        N  0.75773543  0.72305836  0.75641370    -0.77300
C103        C  0.87931011  0.71780130  0.61146056     0.05600
C104        C  0.85040525  0.71815986  0.63643356    -0.10500
C105        C  0.84001535  0.75057480  0.65387043     0.03100
C106        C  0.85897279  0.78281804  0.64579795    -0.09100
C107        C  0.88798593  0.78269868  0.62090406     0.05600
C108        C  0.89788838  0.75010319  0.60407143    -0.08500
H109        H  0.83608503  0.69332971  0.64228937     0.11200
H110        H  0.85120965  0.80785514  0.65883769     0.08700
H111        H  0.92009327  0.74991869  0.58489005     0.08600
C112        C  0.77804704  0.61031001  0.90591738     0.05600
C113        C  0.74933758  0.58684104  0.91380284    -0.10500
C114        C  0.71601503  0.58989203  0.89597620     0.03100
C115        C  0.71116202  0.61759922  0.86995367    -0.09100
C116        C  0.73969416  0.64189791  0.86169662     0.05600
C117        C  0.77310786  0.63788390  0.87994351    -0.08500
H118        H  0.75320035  0.56552790  0.93353999     0.11200
H119        H  0.68554698  0.62001330  0.85600399     0.08700
H120        H  0.79537105  0.65587969  0.87359565     0.08600
C121        C  0.28652582  0.21964056  0.75519720     0.82700
N122        N  0.28930237  0.24809402  0.77873260    -0.75600
C123        C  0.26392043  0.27505862  0.77903847     0.85200
N124        N  0.23547050  0.27320975  0.75542883    -0.75500
C125        C  0.23221845  0.24495136  0.73174837     0.85200
N126        N  0.25789564  0.21835914  0.73183655    -0.77300
C127        C  0.30041091  0.41310988  0.88079715     0.05600
C128        C  0.27053789  0.41799049  0.90356381    -0.10500
C129        C  0.24049206  0.39505451  0.90187412     0.03100
C130        C  0.24014054  0.36654228  0.87636141    -0.09100
C131        C  0.26976463  0.36093310  0.85265304     0.05600
C132        C  0.30001056  0.38453022  0.85518774    -0.08500
H133        H  0.27085028  0.43977126  0.92323361     0.11200
H134        H  0.21691676  0.34876713  0.87498065     0.08700
H135        H  0.32312444  0.38051088  0.83758956     0.08600
C136        C  0.38973810  0.08251760  0.78368236     0.05600
C137        C  0.36539048  0.11204857  0.78432273    -0.10500
C138        C  0.36200998  0.13537292  0.75408875     0.03100
C139        C  0.38375054  0.12862172  0.72317843    -0.09100
C140        C  0.40824276  0.09914889  0.72236876     0.05600
C141        C  0.41082955  0.07650138  0.75270651    -0.08500
H142        H  0.34905765  0.11679631  0.80819877     0.11200
H143        H  0.38147993  0.14613793  0.69977042     0.08700
H144        H  0.42947663  0.05391448  0.75220300     0.08600
C145        C  0.09610552  0.21830577  0.62342940     0.05600
C146        C  0.12396797  0.21508223  0.64972699    -0.10500
C147        C  0.14693610  0.24488912  0.65780081     0.03100
C148        C  0.14147889  0.27774909  0.63920071    -0.09100
C149        C  0.11393801  0.28108832  0.61313883     0.05600
C150        C  0.09155801  0.25144791  0.60553570    -0.08500
H151        H  0.12785801  0.18955637  0.66366929     0.11200
H152        H  0.15868726  0.30072930  0.64499161     0.08700
H153        H  0.07043273  0.25418640  0.58539514     0.08600
O154        O  0.54876412  0.99675563  0.94646575    -0.77600
O155        O  0.55284614  0.99611335  0.05032850    -0.77700
O156        O  0.50849160  0.07671004  0.97026871    -0.77700
O157        O  0.51122073  0.91519158  0.02879972    -0.77600
O158        O  0.55278435  0.05070259  0.99968254    -0.77700
O159        O  0.55342743  0.94162701  0.99683869    -0.77700
O160        O  0.51200872  0.96593392  0.07968882    -0.77600
O161        O  0.50576080  0.02571150  0.91936885    -0.77700
C162        C  0.53665217  0.01038288  0.91799292     1.12000
C163        C  0.54310619  0.98097647  0.07898939     1.11900
C164        C  0.54193672  0.07422163  0.97733591     1.12100
C165        C  0.54421745  0.91797827  0.01988418     1.11900
O166        O  0.48437125  0.91504593  0.96926372    -0.77600
O167        O  0.48551790  0.07685989  0.03177923    -0.77700
O168        O  0.43778478  0.99865305  0.95161404    -0.77700
O169        O  0.44164451  0.99294392  0.05278354    -0.77600
O170        O  0.48370009  0.02354011  0.08047532    -0.77700
O171        O  0.47788020  0.96811324  0.92110917    -0.77700
O172        O  0.44048820  0.93901561  0.00052786    -0.77600
O173        O  0.44011165  0.05256024  0.00302502    -0.77700
Co174      Co  0.51594154  0.95855574  0.96169310     1.51500
Co175      Co  0.51818700  0.03360407  0.03724752     1.51700
Co176      Co  0.47355225  0.03514325  0.96442029     1.51600
Co177      Co  0.47646386  0.95655201  0.03712998     1.51500
O178        O  0.49589451  0.99597315  0.00016454    -1.39600
C179        C  0.45125343  0.91600842  0.97755369     1.12000
C180        C  0.45210491  0.07621819  0.02455695     1.12100
C181        C  0.44682613  0.98340345  0.92274138     1.12000
C182        C  0.45277195  0.00802161  0.08104934     1.12000
C183        C  0.26179317  0.74512826  0.76634969     0.82700
N184        N  0.26264985  0.77103279  0.73997381    -0.75600
C185        C  0.23626261  0.77266303  0.71409768     0.85200
N186        N  0.20878742  0.74783703  0.71488459    -0.75500
C187        C  0.20759176  0.72176677  0.74115296     0.85200
N188        N  0.23420006  0.72065345  0.76669054    -0.77300
C189        C  0.38983748  0.71077312  0.87980470     0.05600
C190        C  0.36205503  0.71014008  0.85344412    -0.10500
C191        C  0.34269088  0.74201785  0.84458997     0.03100
C192        C  0.35137541  0.77449187  0.86266572    -0.09100
C193        C  0.37886493  0.77543792  0.88905545     0.05600
C194        C  0.39789121  0.74356841  0.89731162    -0.08500
H195        H  0.35562399  0.68501305  0.83980645     0.11200
H196        H  0.33676914  0.79906993  0.85613831     0.08700
H197        H  0.41912212  0.74429837  0.91754293     0.08600
C198        C  0.21547546  0.90328026  0.60028769     0.05600
C199        C  0.21331733  0.87641116  0.62751871    -0.10500
C200        C  0.24213343  0.85164768  0.63305950     0.03100
C201        C  0.27328722  0.85448496  0.61071093    -0.09100
C202        C  0.27549026  0.88134145  0.58340514     0.05600
C203        C  0.24646163  0.90519085  0.57860606    -0.08500
H204        H  0.18936119  0.87480473  0.64433941     0.11200
H205        H  0.29570487  0.83602263  0.61464900     0.08700
H206        H  0.24812659  0.92579275  0.55779261     0.08600
C207        C  0.09775331  0.58935157  0.71864445     0.05600
C208        C  0.12312225  0.61782555  0.71619595    -0.10500
C209        C  0.12851749  0.64177564  0.74553668     0.03100
C210        C  0.10791954  0.63687078  0.77740002    -0.09100
C211        C  0.08233372  0.60861346  0.77984807     0.05600
C212        C  0.07759996  0.58511721  0.75047556    -0.08500
H213        H  0.13875188  0.62121495  0.69161117     0.11200
H214        H  0.11182666  0.65483516  0.80012589     0.08700
H215        H  0.05808336  0.56328470  0.75242531     0.08600
C216        C  0.73945104  0.26467449  0.21955859     0.82700
N217        N  0.71418493  0.23754805  0.22038257    -0.75600
C218        C  0.71627818  0.21030912  0.24546831     0.85200
N219        N  0.74421474  0.21049405  0.26983101    -0.75500
C220        C  0.76975238  0.23733180  0.26939768     0.85200
N221        N  0.76705419  0.26422907  0.24416990    -0.77300
C222        C  0.88935060  0.27990436  0.38620963     0.05600
C223        C  0.91263826  0.25084408  0.39348132    -0.10500
C224        C  0.90837012  0.21730601  0.37623971     0.03100
C225        C  0.87969321  0.21299720  0.35092087    -0.09100
C226        C  0.85569584  0.24211511  0.34308137     0.05600
C227        C  0.86103301  0.27547254  0.36100994    -0.08500
H228        H  0.93434162  0.25437242  0.41288728     0.11200
H229        H  0.87603049  0.18724504  0.33752141     0.08700
H230        H  0.84309980  0.29797377  0.35540988     0.08600
C231        C  0.78087050  0.37928868  0.09822774     0.05600
C232        C  0.75201492  0.40264474  0.09029418    -0.10500
C233        C  0.71847405  0.39926220  0.10778369     0.03100
C234        C  0.71372182  0.37121574  0.13363554    -0.09100
C235        C  0.74246435  0.34705123  0.14201560     0.05600
C236        C  0.77593890  0.35156550  0.12403009    -0.08500
H237        H  0.75590176  0.42411567  0.07061135     0.11200
H238        H  0.68800680  0.36842864  0.14733591     0.08700
H239        H  0.79828918  0.33368027  0.13035483     0.08600
C240        C  0.59067853  0.09387485  0.28040439     0.05600
C241        C  0.58634414  0.07131944  0.25022734    -0.10500
C242        C  0.60738856  0.07581249  0.21899094     0.03100
C243        C  0.63371743  0.10369353  0.21800693    -0.09100
C244        C  0.63896088  0.12699526  0.24809874     0.05600
C245        C  0.61711269  0.12167467  0.27927448    -0.08500
H246        H  0.56608133  0.05011981  0.25095477     0.11200
H247        H  0.64991421  0.10737524  0.19384224     0.08700
H248        H  0.62056288  0.13918593  0.30248824     0.08600
O249        O  0.92576818  0.50786037  0.97022153    -0.77600
O250        O  0.07412627  0.53707011  0.01252872    -0.77700
O251        O  0.00738743  0.54900865  0.05144234    -0.77700
O252        O  0.01997576  0.55124098  0.95357445    -0.77600
O253        O  0.04649366  0.51266724  0.07480462    -0.77700
O254        O  0.98235541  0.51591922  0.92318096    -0.77700
O255        O  0.09282119  0.53218815  0.95626172    -0.77600
O256        O  0.94718474  0.54888213  0.00773753    -0.77700
C257        C  0.92488462  0.53946759  0.98336386     1.12000
C258        C  0.09694235  0.54540769  0.98783257     1.11900
C259        C  0.02635966  0.54039986  0.07811339     1.12100
C260        C  0.00079019  0.54524781  0.92593824     1.11900
O261        O  0.00700014  0.44312605  0.94416355    -0.77600
O262        O  0.03159851  0.44283519  0.04501411    -0.77700
O263        O  0.92999265  0.47741061  0.03382010    -0.77700
O264        O  0.07860485  0.46359860  0.97950226    -0.77600
O265        O  0.10054425  0.47152585  0.03424118    -0.77700
O266        O  0.94981624  0.43794263  0.99353758    -0.77700
O267        O  0.04159918  0.48418593  0.92055047    -0.77600
O268        O  0.99098020  0.47434458  0.07617984    -0.77700
Co269      Co  0.96868181  0.47633884  0.96009345     1.51500
Co270      Co  0.05125146  0.48786703  0.02525998     1.51700
Co271      Co  0.97097480  0.51230210  0.03999035     1.51600
Co272      Co  0.04747763  0.50900055  0.96973602     1.51500
O273        O  0.00299676  0.49496159  0.99911810    -1.39600
C274        C  0.02413256  0.45468816  0.91718265     1.12000
C275        C  0.01262696  0.44716463  0.07322591     1.12100
C276        C  0.92882500  0.44626448  0.01954314     1.12000
C277        C  0.10414105  0.45854770  0.00249088     1.12000
C278        C  0.22106365  0.08697329  0.39657894     0.05600
C279        C  0.25123449  0.08255655  0.41902411    -0.10500
C280        C  0.28036660  0.10676027  0.41763157     0.03100
C281        C  0.27942789  0.13586602  0.39277806    -0.09100
C282        C  0.24923797  0.14074087  0.36964319     0.05600
C283        C  0.22010728  0.11606956  0.37190514    -0.08500
H284        H  0.25187510  0.06028591  0.43804743     0.11200
H285        H  0.30197640  0.15458394  0.39147605     0.08700
H286        H  0.19676881  0.11958215  0.35467048     0.08600
C287        C  0.24424659  0.22233995  0.29219088     0.82700
N288        N  0.21823193  0.24871837  0.29249594    -0.75600
C289        C  0.21697150  0.27419858  0.26565202     0.85200
N290        N  0.24193047  0.27305933  0.23857546    -0.75500
C291        C  0.26793372  0.24698846  0.23794580     0.85200
N292        N  0.26895563  0.22171364  0.26478244    -0.77300
C293        C  0.09352599  0.38683222  0.22286428     0.05600
C294        C  0.11988299  0.35942808  0.22670975    -0.10500
C295        C  0.13968432  0.35574907  0.25925057     0.03100
C296        C  0.13290015  0.38024663  0.28788575    -0.09100
C297        C  0.10653836  0.40773412  0.28426393     0.05600
C298        C  0.08709835  0.41057245  0.25178148    -0.08500
H299        H  0.12497475  0.34105049  0.20446825     0.11200
H300        H  0.14794606  0.37783574  0.31291002     0.08700
H301        H  0.06683381  0.43164324  0.24890384     0.08600
C302        C  0.39131002  0.28278286  0.12323903     0.05600
C303        C  0.36426435  0.28147267  0.15011349    -0.10500
C304        C  0.34479571  0.24928477  0.15662295     0.03100
C305        C  0.35256147  0.21831293  0.13581927    -0.09100
C306        C  0.37958239  0.21924369  0.10900134     0.05600
C307        C  0.39870199  0.25153441  0.10284049    -0.08500
H308        H  0.35850548  0.30542886  0.16609931     0.11200
H309        H  0.33795798  0.19341629  0.14082374     0.08700
H310        H  0.41965503  0.25225510  0.08232740     0.08600
C311        C  0.80209169  0.28134348  0.75213705     0.82700
N312        N  0.80138103  0.25625502  0.72497459    -0.75600
C313        C  0.77628787  0.22911990  0.72509926     0.85200
N314        N  0.75184112  0.22725741  0.75255361    -0.75500
C315        C  0.75214359  0.25198466  0.77981029     0.85200
N316        N  0.77730665  0.27905099  0.77948718    -0.77300
C317        C  0.90410702  0.41684250  0.71741295     0.05600
C318        C  0.92892598  0.42129582  0.74565837    -0.10500
C319        C  0.92880437  0.39821325  0.77565448     0.03100
C320        C  0.90321138  0.36984875  0.77734570    -0.09100
C321        C  0.87788123  0.36466868  0.74909381     0.05600
C322        C  0.87858447  0.38844777  0.71910990    -0.08500
H323        H  0.94854929  0.44315822  0.74434107     0.11200
H324        H  0.90292243  0.35199902  0.80058312     0.08700
H325        H  0.85943485  0.38486406  0.69725627     0.08600
C326        C  0.63081599  0.20976859  0.89610455     0.05600
C327        C  0.65983624  0.21133664  0.87129783    -0.10500
C328        C  0.67159742  0.24495718  0.85735550     0.03100
C329        C  0.65393889  0.27686887  0.86848698    -0.09100
C330        C  0.62488101  0.27540114  0.89305017     0.05600
C331        C  0.61362123  0.24188046  0.90668020    -0.08500
H332        H  0.67309826  0.18660979  0.86285691     0.11200
H333        H  0.66262712  0.30274174  0.85788384     0.08700
H334        H  0.59121213  0.24076861  0.92563286     0.08600
C335        C  0.72835089  0.11425011  0.60622232     0.05600
C336        C  0.75819380  0.09291638  0.59647544    -0.10500
C337        C  0.79253072  0.09930254  0.61131148     0.03100
C338        C  0.79713411  0.12787664  0.63619268    -0.09100
C339        C  0.76748804  0.14968103  0.64648668     0.05600
C340        C  0.73307669  0.14259619  0.63136786    -0.08500
H341        H  0.75460879  0.07095611  0.57732869     0.11200
H342        H  0.82359762  0.13288988  0.64777531     0.08700
H343        H  0.71008752  0.15897215  0.63922490     0.08600
C344        C  0.78285596  0.77725436  0.27375434     0.82700
N345        N  0.80872211  0.75066535  0.27412512    -0.75600
C346        C  0.80808320  0.72330169  0.24906107     0.85200
N347        N  0.78119864  0.72288444  0.22363143    -0.75500
C348        C  0.75526735  0.74924452  0.22300546     0.85200
N349        N  0.75636441  0.77617863  0.24813406    -0.77300
C350        C  0.73284355  0.89585987  0.38716329     0.05600
C351        C  0.76013459  0.92135672  0.39375605    -0.10500
C352        C  0.79421450  0.91840173  0.37733751     0.03100
C353        C  0.80088896  0.88928121  0.35328725    -0.09100
C354        C  0.77359176  0.86333142  0.34587716     0.05600
C355        C  0.73958977  0.86704722  0.36303301    -0.08500
H356        H  0.75502302  0.94338189  0.41249974     0.11200
H357        H  0.82724491  0.88663695  0.34070012     0.08700
H358        H  0.71855512  0.84731646  0.35793507     0.08600
C359        C  0.93233169  0.60372799  0.21896125     0.05600
C360        C  0.93371273  0.58101052  0.24924659    -0.10500
C361        C  0.91120570  0.58679070  0.27916561     0.03100
C362        C  0.88675464  0.61618630  0.27891220    -0.09100
C363        C  0.88454926  0.63966945  0.24873941     0.05600
C364        C  0.90762204  0.63309193  0.21870761    -0.08500
H365        H  0.95246832  0.55846604  0.24949704     0.11200
H366        H  0.86936503  0.62068710  0.30209159     0.08700
H367        H  0.90628059  0.65062489  0.19527866     0.08600
C368        C  0.63271064  0.78368565  0.10479391     0.05600
C369        C  0.66172602  0.78318707  0.12976204    -0.10500
C370        C  0.67213214  0.75058324  0.14700714     0.03100
C371        C  0.65299503  0.71849373  0.13891296    -0.09100
C372        C  0.62397064  0.71871290  0.11410173     0.05600
C373        C  0.61423375  0.75133640  0.09722713    -0.08500
H374        H  0.67599562  0.80801309  0.13585649     0.11200
H375        H  0.66058167  0.69342220  0.15200915     0.08700
H376        H  0.59191317  0.75159425  0.07819622     0.08600
C377        C  0.23882962  0.74687479  0.26500388     0.82700
N378        N  0.24009582  0.72008508  0.23972175    -0.75600
C379        C  0.26757262  0.71855825  0.21517589     0.85200
N380        N  0.29413368  0.74438149  0.21614944    -0.72100
C381        C  0.29321797  0.77145404  0.24144354     0.85200
N382        N  0.26542358  0.77243289  0.26571449    -0.77300
C383        C  0.41946738  0.88475620  0.28059206     0.05600
C384        C  0.42321809  0.90874119  0.25145809    -0.10500
C385        C  0.40168586  0.90554121  0.22041964     0.03100
C386        C  0.37588627  0.87739152  0.21835918    -0.09100
C387        C  0.37155993  0.85258702  0.24721093     0.05600
C388        C  0.39355266  0.85661456  0.27839467    -0.08500
H389        H  0.44301630  0.93035471  0.25305988     0.11200
H390        H  0.35923417  0.87480125  0.19438939     0.08700
H391        H  0.39041660  0.83805707  0.30085719     0.08600
C392        C  0.12033924  0.71609199  0.38589131     0.05600
C393        C  0.14769432  0.71634466  0.35937826    -0.10500
C394        C  0.15573657  0.74825943  0.34010530     0.03100
C395        C  0.13587346  0.78000557  0.34754021    -0.09100
C396        C  0.10843376  0.77989635  0.37403117     0.05600
C397        C  0.10092144  0.74790407  0.39300519    -0.08500
H398        H  0.16277415  0.69183892  0.35387517     0.11200
H399        H  0.14192165  0.80469214  0.33301463     0.08700
H400        H  0.07993461  0.74779464  0.41350687     0.08600
C401        C  0.28928181  0.58301032  0.10771119     0.05600
C402        C  0.29178059  0.61058568  0.13409705    -0.10500
C403        C  0.26342473  0.63595536  0.13860096     0.03100
C404        C  0.23249278  0.63319535  0.11615920    -0.09100
C405        C  0.23002219  0.60578730  0.08960957     0.05600
C406        C  0.25835349  0.58088997  0.08594060    -0.08500
H407        H  0.31579852  0.61252681  0.15075479     0.11200
H408        H  0.21063266  0.65254924  0.11906877     0.08700
H409        H  0.25657259  0.55997054  0.06547634     0.08600
O410        O  0.96720291  0.91929290  0.51193793    -0.77600
O411        O  0.02107230  0.06567638  0.53435050    -0.77700
O412        O  0.05442602  0.99568687  0.55107524    -0.77700
O413        O  0.95708256  0.01735322  0.54955495    -0.77600
O414        O  0.08130372  0.03117311  0.51331204    -0.77700
O415        O  0.92483255  0.98022117  0.51541190    -0.77700
O416        O  0.96667591  0.08811287  0.52603510    -0.77600
O417        O  0.00569811  0.93894528  0.55305192    -0.77700
C418        C  0.97936801  0.91877215  0.54396163     1.12000
C419        C  0.99771610  0.09039225  0.54100517     1.11900
C420        C  0.08281923  0.01162378  0.54172247     1.12100
C421        C  0.92803191  0.00047129  0.54359230     1.11900
O422        O  0.95218656  0.99865894  0.44203657    -0.77600
O423        O  0.05092304  0.01392222  0.44400405    -0.77700
O424        O  0.03191099  0.91630733  0.48325537    -0.77700
O425        O  0.98908011  0.06570746  0.45856536    -0.77600
O426        O  0.04417165  0.08611136  0.46650464    -0.77700
O427        O  0.99539453  0.93858881  0.44175087    -0.77700
O428        O  0.92740624  0.03613816  0.47925015    -0.77600
O429        O  0.07915711  0.97351937  0.47834791    -0.77700
Co430      Co  0.96215972  0.96118100  0.47795478     1.51500
Co431      Co  0.03255346  0.03843993  0.48710089     1.51700
Co432      Co  0.04071931  0.95825778  0.51628986     1.51600
Co433      Co  0.97630521  0.04008196  0.50606817     1.51500
O434        O  0.00286483  0.99275698  0.49671645    -1.39600
C435        C  0.92526646  0.01734224  0.45036843     1.12000
C436        C  0.07810631  0.99406235  0.45021205     1.12100
C437        C  0.02004586  0.91665182  0.45113938     1.12000
C438        C  0.01288594  0.08992508  0.45223735     1.12000
C439        C  0.03480788  0.89051988  0.42594444    -0.16000
C440        C  0.05044076  0.86701881  0.40915086     0.08000
C441        C  0.07067279  0.83819054  0.39340502     0.09900
C442        C  0.08823854  0.81249337  0.38288661    -0.16900
C443        C  0.26788657  0.68960048  0.18794029    -0.10800
C444        C  0.26630844  0.66513728  0.16559945    -0.12300
C445        C  0.18473813  0.74844041  0.31320426    -0.10800
C446        C  0.20929318  0.74802258  0.29117308    -0.12300
C447        C  0.32154651  0.79940866  0.24274970    -0.10800
C448        C  0.34445725  0.82336031  0.24478889    -0.12300
C449        C  0.82206429  0.94479273  0.38728782    -0.16000
C450        C  0.84303610  0.96725819  0.39940585     0.08000
C451        C  0.86773148  0.99199240  0.41640785     0.09900
C452        C  0.89145760  0.00871867  0.43212473    -0.16900
C453        C  0.72652921  0.74906693  0.19560186    -0.10800
C454        C  0.70202731  0.74990375  0.17330273    -0.12300
C455        C  0.83588131  0.69455172  0.24918418    -0.10800
C456        C  0.85833804  0.66996959  0.24870186    -0.12300
C457        C  0.78004658  0.83265488  0.32113809    -0.10800
C458        C  0.78295247  0.80698741  0.30026020    -0.12300
C459        C  0.82243691  0.07569201  0.60102851    -0.16000
C460        C  0.84555262  0.05456384  0.59084057     0.08000
C461        C  0.87226143  0.03007523  0.57722590     0.09900
C462        C  0.89638050  0.01232098  0.56355724    -0.16900
C463        C  0.77213392  0.17866715  0.67315552    -0.10800
C464        C  0.77504911  0.20219574  0.69617034    -0.12300
C465        C  0.72504788  0.24964032  0.80845760    -0.10800
C466        C  0.70120356  0.24703366  0.83114048    -0.12300
C467        C  0.82890977  0.31064721  0.75167403    -0.10800
C468        C  0.85121798  0.33514315  0.75078917    -0.12300
C469        C  0.31741213  0.24774459  0.18509917    -0.10800
C470        C  0.29484301  0.24677845  0.20911915    -0.12300
C471        C  0.18926032  0.30261063  0.26538356    -0.10800
C472        C  0.16674732  0.32681656  0.26315536    -0.12300
C473        C  0.19083990  0.06194832  0.40043346    -0.16000
C474        C  0.16645155  0.04089897  0.40715539     0.08000
C475        C  0.13734943  0.01795493  0.41823860     0.09900
C476        C  0.11107928  0.00252025  0.43066742    -0.16900
C477        C  0.24778963  0.17069194  0.34344593    -0.10800
C478        C  0.24581975  0.19472454  0.32070606    -0.12300
C479        C  0.01525116  0.43954595  0.88203740    -0.16000
C480        C  0.99959491  0.42735024  0.85576883     0.08000
C481        C  0.97626625  0.41426034  0.82778201     0.09900
C482        C  0.95469876  0.40504360  0.80465497    -0.16900
C483        C  0.01707177  0.55646426  0.11283886    -0.16000
C484        C  0.00084050  0.56993778  0.13821883     0.08000
C485        C  0.97738789  0.58478680  0.16541346     0.09900
C486        C  0.95645249  0.59552166  0.18860242    -0.16900
C487        C  0.02198028  0.42581580  0.10497509    -0.16000
C488        C  0.03592791  0.41202536  0.13148416     0.08000
C489        C  0.05561775  0.39950106  0.16247568     0.09900
C490        C  0.07317576  0.39176788  0.18930614    -0.16900
C491        C  0.12696367  0.56838760  0.99848547    -0.16000
C492        C  0.15022560  0.58302550  0.01665432     0.08000
C493        C  0.17626515  0.59556857  0.04247588     0.09900
C494        C  0.19933838  0.60264375  0.06492577    -0.16900
C495        C  0.81569333  0.38517285  0.08038091    -0.16000
C496        C  0.84357922  0.39346124  0.06482583     0.08000
C497        C  0.87527099  0.40664192  0.04674643     0.09900
C498        C  0.90104912  0.42162143  0.03265994    -0.16900
C499        C  0.93383723  0.18813445  0.38581235    -0.16000
C500        C  0.95654481  0.16683988  0.39735343     0.08000
C501        C  0.98266848  0.14261851  0.41358630     0.09900
C502        C  0.00141781  0.12043543  0.42964659    -0.16900
C503        C  0.68896208  0.18093585  0.24612696    -0.10800
C504        C  0.66632959  0.15641877  0.24692028    -0.12300
C505        C  0.73773893  0.29370161  0.19209224    -0.10800
C506        C  0.73848900  0.31806590  0.16940209    -0.12300
C507        C  0.80006914  0.23727023  0.29549235    -0.10800
C508        C  0.82551690  0.23838284  0.31695620    -0.12300
C509        C  0.06083652  0.60275419  0.81235059    -0.16000
C510        C  0.04218360  0.59448822  0.83814249     0.08000
C511        C  0.02152577  0.58146441  0.86806143     0.09900
C512        C  0.00774729  0.56710771  0.89420574    -0.16900
C513        C  0.11665921  0.99843803  0.55711824    -0.16000
C514        C  0.14029991  0.97925358  0.56993910     0.08000
C515        C  0.16516796  0.95276050  0.58380246     0.09900
C516        C  0.18660589  0.92955494  0.59347474    -0.16900
C517        C  0.15551590  0.67091047  0.74322346    -0.10800
C518        C  0.17864273  0.69458813  0.74174969    -0.12300
C519        C  0.23786814  0.80047001  0.68545172    -0.10800
C520        C  0.23976970  0.82366161  0.66164630    -0.12300
C521        C  0.29036686  0.74326970  0.79384487    -0.10800
C522        C  0.31414370  0.74191910  0.81687265    -0.12300
C523        C  0.62075544  0.81699917  0.08696429    -0.16000
C524        C  0.60744223  0.84256044  0.07084076     0.08000
C525        C  0.58882073  0.87069355  0.05157464     0.09900
C526        C  0.57039332  0.89320033  0.03597080    -0.16900
C527        C  0.42709399  0.88981550  0.96089875    -0.16000
C528        C  0.41180381  0.86565756  0.94455497     0.08000
C529        C  0.39773078  0.83564708  0.92453511     0.09900
C530        C  0.38803124  0.80894988  0.90784944    -0.16900
C531        C  0.56182689  0.99109861  0.11219314    -0.16000
C532        C  0.57595229  0.00742495  0.13718432     0.08000
C533        C  0.59044803  0.03085688  0.16463020     0.09900
C534        C  0.60033054  0.05179092  0.18822077    -0.16900
C535        C  0.43657131  0.99669475  0.11509169    -0.16000
C536        C  0.42527334  0.97903024  0.14053976     0.08000
C537        C  0.41426399  0.95391889  0.16798668     0.09900
C538        C  0.40692381  0.93151398  0.19105416    -0.16900
C539        C  0.38895791  0.18676437  0.08875359    -0.16000
C540        C  0.39897511  0.16001145  0.07246279     0.08000
C541        C  0.41350771  0.12916820  0.05429548     0.09900
C542        C  0.42888524  0.10392492  0.03988945    -0.16900
C543        C  0.56693869  0.09922320  0.96024430    -0.16000
C544        C  0.58511231  0.12171956  0.94458864     0.08000
C545        C  0.60398636  0.14986160  0.92600745     0.09900
C546        C  0.61788512  0.17573330  0.91119056    -0.16900
C547        C  0.07198769  0.18836067  0.61325810    -0.16000
C548        C  0.05060273  0.16641883  0.60066210     0.08000
C549        C  0.02627000  0.14175262  0.58270508     0.09900
C550        C  0.00891386  0.11974372  0.56507110    -0.16900
C551        C  0.39422393  0.05795185  0.81441361    -0.16000
C552        C  0.40188139  0.03618964  0.83802338     0.08000
C553        C  0.41439176  0.01153814  0.86530106     0.09900
C554        C  0.42775107  0.99420920  0.89000191    -0.16900
C555        C  0.21050642  0.40177957  0.92683601    -0.16000
C556        C  0.18738933  0.41114299  0.94847597     0.08000
C557        C  0.16043741  0.42493971  0.97284577     0.09900
C558        C  0.13607240  0.43880703  0.99030955    -0.16900
C559        C  0.20157011  0.24321843  0.70632310    -0.10800
C560        C  0.17636803  0.24257738  0.68468783    -0.12300
C561        C  0.33595156  0.16572045  0.75465237    -0.10800
C562        C  0.31378847  0.19050697  0.75508680    -0.12300
C563        C  0.26697078  0.30556468  0.80466832    -0.10800
C564        C  0.26887144  0.33086417  0.82621212    -0.12300
C565        C  0.89671047  0.56380855  0.97060890    -0.16000
C566        C  0.87132323  0.57977291  0.95696416     0.08000
C567        C  0.84026399  0.59466418  0.93922336     0.09900
C568        C  0.81276505  0.60413302  0.92372621    -0.16900
C569        C  0.90769234  0.81572512  0.61168931    -0.16000
C570        C  0.92537535  0.84148072  0.60114501     0.08000
C571        C  0.94634299  0.87018569  0.58567090     0.09900
C572        C  0.96304343  0.89334639  0.56920805    -0.16900
C573        C  0.73298049  0.69394046  0.81080575    -0.10800
C574        C  0.73528966  0.67030002  0.83400033    -0.12300
C575        C  0.78584862  0.75016369  0.70268794    -0.10800
C576        C  0.81021916  0.75058407  0.68024673    -0.12300
C577        C  0.58097783  0.92795778  0.81087171    -0.16000
C578        C  0.57265767  0.95090170  0.83311644     0.08000
C579        C  0.56143760  0.97729301  0.85933108     0.09900
C580        C  0.55090927  0.99661327  0.88393439    -0.16900
C581        C  0.65151067  0.82463423  0.75615332    -0.10800
C582        C  0.67554981  0.80172989  0.75671491    -0.12300
C583        C  0.41185106  0.31583794  0.11628846    -0.16000
C584        C  0.42982537  0.34221412  0.10802949     0.08000
C585        C  0.45099977  0.37197099  0.09501579     0.09900
C586        C  0.46799508  0.39582562  0.07989206    -0.16900
C587        C  0.60602430  0.30800382  0.90437028    -0.16000
C588        C  0.58878566  0.33376183  0.91524414     0.08000
C589        C  0.56795040  0.36287878  0.92960269     0.09900
C590        C  0.55085259  0.38693389  0.94402208    -0.16900
C591        C  0.62086190  0.49692786  0.06470577    -0.16000
C592        C  0.64405708  0.47656844  0.07668736     0.08000
C593        C  0.66874444  0.44918005  0.08945313     0.09900
C594        C  0.68997333  0.42562360  0.09904657    -0.16900
C595        C  0.68783694  0.56347628  0.90464123    -0.16000
C596        C  0.66710496  0.53990987  0.91483920     0.08000
C597        C  0.64307646  0.51294928  0.92907046     0.09900
C598        C  0.62001018  0.49374140  0.94272789    -0.16900
C599        C  0.60366672  0.68577718  0.10571623    -0.16000
C600        C  0.58555972  0.65962726  0.09690359     0.08000
C601        C  0.56405397  0.62988330  0.08422245     0.09900
C602        C  0.54684248  0.60547271  0.07018463    -0.16900
C603        C  0.46830164  0.60100539  0.93045433    -0.16000
C604        C  0.45076777  0.62422385  0.91473718     0.08000
C605        C  0.42888286  0.65283724  0.89993544     0.09900
C606        C  0.41044902  0.67823824  0.88948579    -0.16900
C607        C  0.31856367  0.55734527  0.10104357    -0.16000
C608        C  0.34143394  0.53559832  0.09154748     0.08000
C609        C  0.36849892  0.51162690  0.07761243     0.09900
C610        C  0.39362520  0.49508081  0.06419040    -0.16900
C611        C  0.40143633  0.49934411  0.93197516    -0.16000
C612        C  0.37873684  0.48295845  0.91450481     0.08000
C613        C  0.35374905  0.45893802  0.89698063     0.09900
C614        C  0.33123908  0.43735813  0.88614183    -0.16900
C615        C  0.09859155  0.43327321  0.31346277    -0.16000
C616        C  0.08926932  0.45544270  0.33608194     0.08000
C617        C  0.07625718  0.48077819  0.36250152     0.09900
C618        C  0.06367851  0.49921917  0.38681846    -0.16900
C619        C  0.94034098  0.49663919  0.38649463    -0.16000
C620        C  0.92957806  0.51452579  0.36104996     0.08000
C621        C  0.91985416  0.53978312  0.33337622     0.09900
C622        C  0.91405505  0.56193570  0.30970421    -0.16900
C623        C  0.06130345  0.49875156  0.61360636    -0.16000
C624        C  0.07284267  0.51670303  0.63866855     0.08000
C625        C  0.08409073  0.54187433  0.66583814     0.09900
C626        C  0.09175059  0.56402961  0.68896974    -0.16900
C627        C  0.93674593  0.50562304  0.61100181    -0.16000
C628        C  0.92402580  0.48857038  0.63606696     0.08000
C629        C  0.91246892  0.46380395  0.66338863     0.09900
C630        C  0.90608740  0.44175195  0.68694709    -0.16900
C631        C  0.07064512  0.39565648  0.54053189    -0.16000
C632        C  0.08600802  0.37167498  0.55684659     0.08000
C633        C  0.09954023  0.34171597  0.57697435     0.09900
C634        C  0.10786672  0.31489226  0.59398052    -0.16900
C635        C  0.93214900  0.39449902  0.45998165    -0.16000
C636        C  0.91710671  0.37058918  0.44309608     0.08000
C637        C  0.90369476  0.34081500  0.42234307     0.09900
C638        C  0.89529000  0.31405697  0.40509392    -0.16900
C639        C  0.93226083  0.60576751  0.53877115    -0.16000
C640        C  0.91653836  0.62933876  0.55561534     0.08000
C641        C  0.90132128  0.65855477  0.57605964     0.09900
C642        C  0.89022658  0.68463780  0.59290179    -0.16900
C643        C  0.11170421  0.68340881  0.40600734    -0.16000
C644        C  0.10206080  0.65734141  0.42350847     0.08000
C645        C  0.08775456  0.62790501  0.44390685     0.09900
C646        C  0.07210224  0.60406105  0.46017112    -0.16900
C647        C  0.49034758  0.05294444  0.61303506    -0.16000
C648        C  0.47362073  0.06653954  0.63815293     0.08000
C649        C  0.45077670  0.08075786  0.66636468     0.09900
C650        C  0.43091813  0.09095774  0.69079851    -0.16900
C651        C  0.49406275  0.92072953  0.60975889    -0.16000
C652        C  0.50795571  0.90602808  0.63567548     0.08000
C653        C  0.52933255  0.89215007  0.66472435     0.09900
C654        C  0.54896063  0.88394595  0.68981811    -0.16900
C655        C  0.38222233  0.05727186  0.50386086    -0.16000
C656        C  0.35890905  0.07404575  0.48781573     0.08000
C657        C  0.33318148  0.09025962  0.46389304     0.09900
C658        C  0.31055486  0.10052575  0.44228011    -0.16900
C659        C  0.38193633  0.92668436  0.49897501    -0.16000
C660        C  0.35796481  0.91108456  0.51557469     0.08000
C661        C  0.33103868  0.89588591  0.53925378     0.09900
C662        C  0.30722317  0.88632864  0.56011812    -0.16900
C663        C  0.56720478  0.08768990  0.31187705    -0.16000
C664        C  0.54615380  0.07923301  0.33599112     0.08000
C665        C  0.52169844  0.06720773  0.36388733     0.09900
C666        C  0.50358751  0.05578036  0.38912862    -0.16900
C667        C  0.44215190  0.89062271  0.31254802    -0.16000
C668        C  0.46189420  0.90005674  0.33729820     0.08000
C669        C  0.48395219  0.91452843  0.36585811     0.09900
C670        C  0.49908559  0.92905229  0.39137012    -0.16900
C671        C  0.61103282  0.06515677  0.54060451    -0.16000
C672        C  0.63537509  0.08111721  0.55606276     0.08000
C673        C  0.66575529  0.09607415  0.57490907     0.09900
C674        C  0.69318083  0.10612219  0.59017299    -0.16900
C675        C  0.61655227  0.92741844  0.46452037    -0.16000
C676        C  0.64144975  0.91486262  0.44693587     0.08000
C677        C  0.67171780  0.90493875  0.42483081     0.09900
C678        C  0.69859454  0.89924988  0.40660227    -0.16900
loop_ 
_geom_bond_atom_site_label_1 
_geom_bond_atom_site_label_2 
_geom_bond_distance 
_geom_bond_site_symmetry_2 
_ccdc_geom_bond_type 
O1            C9   1.263       .  A
O1          Co21   1.991   1_565  S
O2           C10   1.279       .  A
O2          Co22   2.057       .  S
O3           C11   1.254       .  A
O3          Co23   1.964       .  S
O4           C12   1.264       .  A
O4          Co24   1.953       .  S
O5           C11   1.272       .  A
O5          Co22   2.048       .  S
O6           C12   1.292       .  A
O6          Co21   2.090   1_565  S
O7           C10   1.275       .  A
O7          Co24   1.960       .  S
O8            C9   1.273       .  A
O8          Co23   2.018       .  S
C9          C675   1.455       .  S
C10         C659   1.461       .  S
C11         C651   1.450       .  S
C12         C670   1.459       .  S
O13          C26   1.251       .  A
O13         Co21   1.956       .  S
O14          C27   1.262       .  A
O14         Co22   1.955   1_545  S
O15          C28   1.268       .  A
O15         Co23   2.003   1_545  S
O16          C29   1.283       .  A
O16         Co24   2.059   1_545  S
O17          C29   1.274       .  A
O17         Co22   1.944   1_545  S
O18          C28   1.273       .  A
O18         Co21   2.009       .  S
O19          C26   1.273       .  A
O19         Co24   2.061   1_545  S
O20          C27   1.290       .  A
O20         Co23   2.089   1_545  S
Co21         O25   2.037   1_545  S
Co22         O25   2.041       .  S
Co23         O25   2.039       .  S
Co24         O25   2.051       .  S
C26         C666   1.464       .  S
C27         C647   1.463       .  S
C28         C671   1.456       .  S
C29         C655   1.450       .  S
O30          C38   1.264       .  A
O30         Co50   2.011   1_655  S
O31          C39   1.264       .  A
O31         Co51   2.011   1_655  S
O32          C40   1.253       .  A
O32         Co52   1.947       .  S
O33          C41   1.253       .  A
O33         Co53   1.947       .  S
O34          C40   1.278       .  A
O34         Co51   2.075   1_655  S
O35          C41   1.279       .  A
O35         Co50   2.074   1_655  S
O36          C39   1.267       .  A
O36         Co53   2.001       .  S
O37          C38   1.268       .  A
O37         Co52   2.007       .  S
C38         C639   1.456       .  S
C39         C635   1.453       .  S
C40         C619   1.451       .  S
C41         C627   1.449       .  S
O42          C55   1.252       .  A
O42         Co50   1.948       .  S
O43          C56   1.252       .  A
O43         Co51   1.946       .  S
O44          C57   1.265       .  A
O44         Co52   2.010   1_455  S
O45          C58   1.266       .  A
O45         Co53   2.013   1_455  S
O46          C58   1.265       .  A
O46         Co51   1.993       .  S
O47          C57   1.266       .  A
O47         Co50   1.996       .  S
O48          C55   1.277       .  A
O48         Co53   2.074   1_455  S
O49          C56   1.279       .  A
O49         Co52   2.083   1_455  S
Co50         O54   2.118       .  S
Co51         O54   2.118       .  S
Co52         O54   2.118   1_655  S
Co53         O54   2.118   1_655  S
C55         C623   1.452       .  S
C56         C618   1.457       .  S
C57         C646   1.449       .  S
C58         C631   1.448       .  S
O59          C67   1.251       .  A
O59         Co79   1.948       .  S
O60          C68   1.250       .  A
O60         Co80   1.944       .  S
O61          C69   1.266       .  A
O61         Co81   2.015   1_554  S
O62          C70   1.266       .  A
O62         Co82   2.010   1_554  S
O63          C69   1.270       .  A
O63         Co80   2.006       .  S
O64          C70   1.272       .  A
O64         Co79   2.011       .  S
O65          C68   1.279       .  A
O65         Co82   2.089   1_554  S
O66          C67   1.277       .  A
O66         Co81   2.075   1_554  S
C67         C610   1.453       .  S
C68         C591   1.463       .  S
C69         C586   1.456       .  S
C70         C602   1.458       .  S
O71          C84   1.261       .  A
O71         Co79   2.008   1_556  S
O72          C85   1.261       .  A
O72         Co80   2.005   1_556  S
O73          C86   1.251       .  A
O73         Co81   1.942       .  S
O74          C87   1.251       .  A
O74         Co82   1.942       .  S
O75          C87   1.282       .  A
O75         Co80   2.091   1_556  S
O76          C86   1.285       .  A
O76         Co79   2.095   1_556  S
O77          C84   1.269       .  A
O77         Co82   2.018       .  S
O78          C85   1.265       .  A
O78         Co81   2.000       .  S
Co79         O83   2.117       .  S
Co80         O83   2.123       .  S
Co81         O83   2.115   1_556  S
Co82         O83   2.120   1_556  S
C84         C603   1.463       .  S
C85         C590   1.449       .  S
C86         C611   1.456       .  S
C87         C598   1.454       .  S
C88         C577   1.465       .  S
C88          C89   1.417       .  A
C88          C93   1.401       .  A
C89          C90   1.419       .  A
C89          H94   1.083       .  S
C90         C581   1.476       .  S
C90          C91   1.415       .  A
C91          C92   1.413       .  A
C91          H95   1.084       .  S
C92         C654   1.458       .  S
C92          C93   1.401       .  A
C93          H96   1.085       .  S
C97         C573   1.472       .  S
C97          N98   1.369       .  A
C97         N102   1.366       .  A
N98          C99   1.369       .  A
C99         C582   1.473       .  S
C99         N100   1.367       .  A
N100        C101   1.367       .  A
C101        C575   1.468       .  S
C101        N102   1.366       .  A
C103        C642   1.462       .  S
C103        C104   1.412       .  A
C103        C108   1.405       .  A
C104        C105   1.414       .  A
C104        H109   1.082       .  S
C105        C576   1.471       .  S
C105        C106   1.415       .  A
C106        C107   1.414       .  A
C106        H110   1.083       .  S
C107        C569   1.463       .  S
C107        C108   1.405       .  A
C108        H111   1.085       .  S
C112        C568   1.461       .  S
C112        C113   1.402       .  A
C112        C117   1.413       .  A
C113        C114   1.402       .  A
C113        H118   1.084       .  S
C114        C595   1.464       .  S
C114        C115   1.417       .  A
C115        C116   1.419       .  A
C115        H119   1.082       .  S
C116        C574   1.476       .  S
C116        C117   1.416       .  A
C117        H120   1.084       .  S
C121        C562   1.475       .  S
C121        N122   1.369       .  A
C121        N126   1.367       .  A
N122        C123   1.369       .  A
C123        C563   1.478       .  S
C123        N124   1.369       .  A
N124        C125   1.369       .  A
C125        C559   1.474       .  S
C125        N126   1.367       .  A
C127        C614   1.464       .  S
C127        C128   1.400       .  A
C127        C132   1.419       .  A
C128        C129   1.399       .  A
C128        H133   1.085       .  S
C129        C555   1.464       .  S
C129        C130   1.415       .  A
C130        C131   1.418       .  A
C130        H134   1.083       .  S
C131        C564   1.481       .  S
C131        C132   1.422       .  A
C132        H135   1.084       .  S
C136        C551   1.464       .  S
C136        C137   1.415       .  A
C136        C141   1.403       .  A
C137        C138   1.418       .  A
C137        H142   1.084       .  S
C138        C561   1.479       .  S
C138        C139   1.419       .  A
C139        C140   1.417       .  A
C139        H143   1.084       .  S
C140        C650   1.469       .  S
C140        C141   1.403       .  A
C141        H144   1.083       .  S
C145        C547   1.471       .  S
C145        C146   1.422       .  A
C145        C150   1.403       .  A
C146        C147   1.423       .  A
C146        H151   1.085       .  S
C147        C560   1.477       .  S
C147        C148   1.411       .  A
C148        C149   1.408       .  A
C148        H152   1.083       .  S
C149        C634   1.454       .  S
C149        C150   1.402       .  A
C150        H153   1.084       .  S
O154        C162   1.250   1_565  A
O154       Co174   1.946       .  S
O155        C163   1.252       .  A
O155       Co175   1.949   1_565  S
O156        C164   1.267       .  A
O156       Co176   2.020       .  S
O157        C165   1.268       .  A
O157       Co177   2.021       .  S
O158        C164   1.265       .  A
O158       Co175   1.991   1_556  S
O159        C165   1.268   1_556  A
O159       Co174   2.001       .  S
O160        C163   1.278       .  A
O160       Co177   2.080       .  S
O161        C162   1.276       .  A
O161       Co176   2.077       .  S
C162        C580   1.457   1_545  S
C163        C531   1.458       .  S
C164        C543   1.452       .  S
C165        C526   1.460       .  S
O166        C179   1.263       .  A
O166       Co174   2.008       .  S
O167        C180   1.264       .  A
O167       Co175   2.015       .  S
O168        C181   1.253       .  A
O168       Co176   1.948   1_565  S
O169        C182   1.254   1_565  A
O169       Co177   1.950       .  S
O170        C182   1.280       .  A
O170       Co175   2.078       .  S
O171        C181   1.281       .  A
O171       Co174   2.088       .  S
O172        C179   1.266   1_554  A
O172       Co177   2.006       .  S
O173        C180   1.263       .  A
O173       Co176   1.995   1_554  S
Co174       O178   2.118   1_556  S
Co175       O178   2.121   1_545  S
Co176       O178   2.128   1_546  S
Co177       O178   2.124       .  S
C179        C527   1.455       .  S
C180        C542   1.452       .  S
C181        C554   1.457       .  S
C182        C535   1.456   1_545  S
C183        C521   1.468       .  S
C183        N184   1.368       .  A
C183        N188   1.364       .  A
N184        C185   1.368       .  A
C185        C519   1.478       .  S
C185        N186   1.370       .  A
N186        C187   1.369       .  A
C187        C518   1.469       .  S
C187        N188   1.364       .  A
C189        C606   1.469       .  S
C189        C190   1.416       .  A
C189        C194   1.407       .  A
C190        C191   1.418       .  A
C190        H195   1.084       .  S
C191        C522   1.471       .  S
C191        C192   1.411       .  A
C192        C193   1.410       .  A
C192        H196   1.084       .  S
C193        C530   1.461       .  S
C193        C194   1.406       .  A
C194        H197   1.085       .  S
C198        C516   1.465       .  S
C198        C199   1.417       .  A
C198        C203   1.400       .  A
C199        C200   1.420       .  A
C199        H204   1.084       .  S
C200        C520   1.482       .  S
C200        C201   1.422       .  A
C201        C202   1.419       .  A
C201        H205   1.084       .  S
C202        C662   1.467       .  S
C202        C203   1.400       .  A
C203        H206   1.085       .  S
C207        C626   1.460       .  S
C207        C208   1.413       .  A
C207        C212   1.402       .  A
C208        C209   1.415       .  A
C208        H213   1.085       .  S
C209        C517   1.471       .  S
C209        C210   1.415       .  A
C210        C211   1.413       .  A
C210        H214   1.081       .  S
C211        C509   1.457       .  S
C211        C212   1.402       .  A
C212        H215   1.085       .  S
C216        C505   1.479       .  S
C216        N217   1.371       .  A
C216        N221   1.368       .  A
N217        C218   1.372       .  A
C218        C503   1.484       .  S
C218        N219   1.371       .  A
N219        C220   1.370       .  A
C220        C507   1.479       .  S
C220        N221   1.367       .  A
C222        C638   1.460       .  S
C222        C223   1.403       .  A
C222        C227   1.411       .  A
C223        C224   1.403       .  A
C223        H228   1.084       .  S
C224        C499   1.475       .  S
C224        C225   1.424       .  A
C225        C226   1.425       .  A
C225        H229   1.082       .  S
C226        C508   1.482       .  S
C226        C227   1.414       .  A
C227        H230   1.084       .  S
C231        C495   1.463       .  S
C231        C232   1.404       .  A
C231        C236   1.412       .  A
C232        C233   1.404       .  A
C232        H237   1.087       .  S
C233        C594   1.471       .  S
C233        C234   1.422       .  A
C234        C235   1.423       .  A
C234        H238   1.082       .  S
C235        C506   1.482       .  S
C235        C236   1.415       .  A
C236        H239   1.084       .  S
C240        C663   1.470       .  S
C240        C241   1.402       .  A
C240        C245   1.419       .  A
C241        C242   1.403       .  A
C241        H246   1.085       .  S
C242        C534   1.467       .  S
C242        C243   1.419       .  A
C243        C244   1.421       .  A
C243        H247   1.084       .  S
C244        C504   1.487       .  S
C244        C245   1.421       .  A
C245        H248   1.083       .  S
O249        C257   1.266       .  A
O249       Co269   2.004       .  S
O250        C258   1.281   1_554  A
O250       Co270   2.061       .  S
O251        C259   1.252       .  A
O251       Co271   1.958   1_455  S
O252        C260   1.264       .  A
O252       Co272   1.957       .  S
O253        C259   1.273       .  A
O253       Co270   2.056       .  S
O254        C260   1.285   1_655  A
O254       Co269   2.064       .  S
O255        C258   1.275       .  A
O255       Co272   1.948       .  S
O256        C257   1.270   1_554  A
O256       Co271   2.007       .  S
C257        C565   1.455       .  S
C258        C491   1.452       .  S
C259        C483   1.456       .  S
C260        C512   1.448       .  S
O261        C274   1.257       .  A
O261       Co269   1.965   1_455  S
O262        C275   1.267       .  A
O262       Co270   1.958       .  S
O263        C276   1.268       .  A
O263       Co271   2.003       .  S
O264        C277   1.284   1_556  A
O264       Co272   2.067       .  S
O265        C277   1.275       .  A
O265       Co270   1.949       .  S
O266        C276   1.273   1_556  A
O266       Co269   2.008       .  S
O267        C274   1.274       .  A
O267       Co272   2.049       .  S
O268        C275   1.289   1_655  A
O268       Co271   2.076       .  S
Co269       O273   2.041   1_655  S
Co270       O273   2.046   1_554  S
Co271       O273   2.024   1_654  S
Co272       O273   2.038       .  S
C274        C479   1.453       .  S
C275        C487   1.457       .  S
C276        C498   1.456       .  S
C277        C558   1.459   1_554  S
C278        C473   1.458       .  S
C278        C279   1.400       .  A
C278        C283   1.411       .  A
C279        C280   1.402       .  A
C279        H284   1.083       .  S
C280        C658   1.459       .  S
C280        C281   1.416       .  A
C281        C282   1.418       .  A
C281        H285   1.085       .  S
C282        C477   1.473       .  S
C282        C283   1.414       .  A
C283        H286   1.081       .  S
C287        C478   1.469       .  S
C287        N288   1.370       .  A
C287        N292   1.365       .  A
N288        C289   1.370       .  A
C289        C471   1.468       .  S
C289        N290   1.362       .  A
N290        C291   1.362       .  A
C291        C470   1.458       .  S
C291        N292   1.364       .  A
C293        C490   1.463       .  S
C293        C294   1.413       .  A
C293        C298   1.404       .  A
C294        C295   1.415       .  A
C294        H299   1.083       .  S
C295        C472   1.472       .  S
C295        C296   1.416       .  A
C296        C297   1.415       .  A
C296        H300   1.083       .  S
C297        C615   1.464       .  S
C297        C298   1.404       .  A
C298        H301   1.086       .  S
C302        C583   1.462       .  S
C302        C303   1.411       .  A
C302        C307   1.407       .  A
C303        C304   1.412       .  A
C303        H308   1.086       .  S
C304        C469   1.462       .  S
C304        C305   1.409       .  A
C305        C306   1.408       .  A
C305        H309   1.083       .  S
C306        C539   1.457       .  S
C306        C307   1.406       .  A
C307        H310   1.085       .  S
C311        C467   1.469       .  S
C311        N312   1.368       .  A
C311        N316   1.367       .  A
N312        C313   1.367       .  A
C313        C464   1.462       .  S
C313        N314   1.361       .  A
N314        C315   1.361       .  A
C315        C465   1.461       .  S
C315        N316   1.367       .  A
C317        C630   1.457       .  S
C317        C318   1.400       .  A
C317        C322   1.413       .  A
C318        C319   1.400       .  A
C318        H323   1.087       .  S
C319        C482   1.460       .  S
C319        C320   1.414       .  A
C320        C321   1.416       .  A
C320        H324   1.084       .  S
C321        C468   1.472       .  S
C321        C322   1.416       .  A
C322        H325   1.083       .  S
C326        C546   1.458       .  S
C326        C327   1.413       .  A
C326        C331   1.403       .  A
C327        C328   1.415       .  A
C327        H332   1.083       .  S
C328        C466   1.464       .  S
C328        C329   1.410       .  A
C329        C330   1.408       .  A
C329        H333   1.083       .  S
C330        C587   1.454       .  S
C330        C331   1.402       .  A
C331        H334   1.086       .  S
C335        C674   1.461       .  S
C335        C336   1.403       .  A
C335        C340   1.412       .  A
C336        C337   1.403       .  A
C336        H341   1.086       .  S
C337        C459   1.459       .  S
C337        C338   1.411       .  A
C338        C339   1.413       .  A
C338        H342   1.084       .  S
C339        C463   1.467       .  S
C339        C340   1.414       .  A
C340        H343   1.083       .  S
C344        C458   1.473       .  S
C344        N345   1.372       .  A
C344        N349   1.363       .  A
N345        C346   1.372       .  A
C346        C455   1.479       .  S
C346        N347   1.369       .  A
N347        C348   1.367       .  A
C348        C453   1.468       .  S
C348        N349   1.363       .  A
C350        C678   1.461       .  S
C350        C351   1.402       .  A
C350        C355   1.412       .  A
C351        C352   1.403       .  A
C351        H356   1.086       .  S
C352        C449   1.466       .  S
C352        C353   1.418       .  A
C353        C354   1.419       .  A
C353        H357   1.084       .  S
C354        C457   1.477       .  S
C354        C355   1.415       .  A
C355        H358   1.083       .  S
C359        C486   1.465       .  S
C359        C360   1.401       .  A
C359        C364   1.419       .  A
C360        C361   1.401       .  A
C360        H365   1.084       .  S
C361        C622   1.460       .  S
C361        C362   1.414       .  A
C362        C363   1.416       .  A
C362        H366   1.084       .  S
C363        C456   1.481       .  S
C363        C364   1.421       .  A
C364        H367   1.083       .  S
C368        C523   1.466       .  S
C368        C369   1.416       .  A
C368        C373   1.406       .  A
C369        C370   1.417       .  A
C369        H374   1.083       .  S
C370        C454   1.472       .  S
C370        C371   1.414       .  A
C371        C372   1.412       .  A
C371        H375   1.083       .  S
C372        C599   1.464       .  S
C372        C373   1.405       .  A
C373        H376   1.085       .  S
C377        C446   1.460       .  S
C377        N378   1.363       .  A
C377        N382   1.364       .  A
N378        C379   1.363       .  A
C379        C443   1.470       .  S
C379        N380   1.370       .  A
N380        C381   1.371       .  A
C381        C447   1.473       .  S
C381        N382   1.365       .  A
C383        C667   1.465       .  S
C383        C384   1.402       .  A
C383        C388   1.417       .  A
C384        C385   1.402       .  A
C384        H389   1.086       .  S
C385        C538   1.463       .  S
C385        C386   1.414       .  A
C386        C387   1.416       .  A
C386        H390   1.084       .  S
C387        C448   1.477       .  S
C387        C388   1.419       .  A
C388        H391   1.084       .  S
C392        C643   1.455       .  S
C392        C393   1.409       .  A
C392        C397   1.403       .  A
C393        C394   1.411       .  A
C393        H398   1.083       .  S
C394        C445   1.463       .  S
C394        C395   1.412       .  A
C395        C396   1.410       .  A
C395        H399   1.083       .  S
C396        C442   1.455       .  S
C396        C397   1.403       .  A
C397        H400   1.085       .  S
C401        C607   1.461       .  S
C401        C402   1.414       .  A
C401        C406   1.401       .  A
C402        C403   1.417       .  A
C402        H407   1.083       .  S
C403        C444   1.474       .  S
C403        C404   1.417       .  A
C404        C405   1.414       .  A
C404        H408   1.085       .  S
C405        C494   1.461       .  S
C405        C406   1.401       .  A
C406        H409   1.084       .  S
O410        C418   1.267       .  A
O410       Co430   2.004       .  S
O411        C419   1.281   1_455  A
O411       Co431   2.061       .  S
O412        C420   1.253   1_565  A
O412       Co432   1.956       .  S
O413        C421   1.262       .  A
O413       Co433   1.949       .  S
O414        C420   1.277       .  A
O414       Co431   2.064       .  S
O415        C421   1.289   1_565  A
O415       Co430   2.078       .  S
O416        C419   1.277       .  A
O416       Co433   1.956       .  S
O417        C418   1.272   1_455  A
O417       Co432   2.009       .  S
C418        C572   1.456       .  S
C419        C550   1.463   1_655  S
C420        C513   1.459   1_545  S
C421        C462   1.451       .  S
O422        C435   1.250   1_565  A
O422       Co430   1.955       .  S
O423        C436   1.266   1_545  A
O423       Co431   1.955       .  S
O424        C437   1.266       .  A
O424       Co432   2.001       .  S
O425        C438   1.277   1_655  A
O425       Co433   2.051       .  S
O426        C438   1.279       .  A
O426       Co431   1.968       .  S
O427        C437   1.269   1_655  A
O427       Co430   2.000       .  S
O428        C435   1.277       .  A
O428       Co433   2.067       .  S
O429        C436   1.289       .  A
O429       Co432   2.075       .  S
Co430       O434   2.027   1_655  S
Co431       O434   2.046   1_545  S
Co432       O434   2.028       .  S
Co433       O434   2.036   1_645  S
C435        C452   1.456       .  S
C436        C476   1.451   1_565  S
C437        C439   1.449       .  S
C438        C502   1.467       .  S
C439        C440   1.214       .  T
C440        C441   1.427       .  S
C441        C442   1.215       .  T
C443        C444   1.227       .  T
C445        C446   1.220       .  T
C447        C448   1.228       .  T
C449        C450   1.222       .  T
C450        C451   1.437       .  S
C451        C452   1.221   1_565  T
C453        C454   1.225       .  T
C455        C456   1.231       .  T
C457        C458   1.228       .  T
C459        C460   1.218       .  T
C460        C461   1.431       .  S
C461        C462   1.217       .  T
C463        C464   1.222       .  T
C465        C466   1.221       .  T
C467        C468   1.226       .  T
C469        C470   1.219       .  T
C471        C472   1.225       .  T
C473        C474   1.217       .  T
C474        C475   1.430       .  S
C475        C476   1.217       .  T
C477        C478   1.226       .  T
C479        C480   1.217   1_455  T
C480        C481   1.432       .  S
C481        C482   1.218       .  T
C483        C484   1.220       .  T
C484        C485   1.437   1_455  S
C485        C486   1.221       .  T
C487        C488   1.220       .  T
C488        C489   1.435       .  S
C489        C490   1.220       .  T
C491        C492   1.218   1_556  T
C492        C493   1.433       .  S
C493        C494   1.219       .  T
C495        C496   1.220       .  T
C496        C497   1.434       .  S
C497        C498   1.219       .  T
C499        C500   1.228       .  T
C500        C501   1.448       .  S
C501        C502   1.227   1_655  T
C503        C504   1.234       .  T
C505        C506   1.232       .  T
C507        C508   1.232       .  T
C509        C510   1.216       .  T
C510        C511   1.428       .  S
C511        C512   1.215       .  T
C513        C514   1.222       .  T
C514        C515   1.438       .  S
C515        C516   1.222       .  T
C517        C518   1.225       .  T
C519        C520   1.231       .  T
C521        C522   1.225       .  T
C523        C524   1.221       .  T
C524        C525   1.437       .  S
C525        C526   1.221       .  T
C527        C528   1.218       .  T
C528        C529   1.432       .  S
C529        C530   1.218       .  T
C531        C532   1.221   1_565  T
C532        C533   1.438       .  S
C533        C534   1.222       .  T
C535        C536   1.219       .  T
C536        C537   1.435       .  S
C537        C538   1.220       .  T
C539        C540   1.216       .  T
C540        C541   1.429       .  S
C541        C542   1.216       .  T
C543        C544   1.216       .  T
C544        C545   1.429       .  S
C545        C546   1.217       .  T
C547        C548   1.225       .  T
C548        C549   1.443       .  S
C549        C550   1.225       .  T
C551        C552   1.221       .  T
C552        C553   1.436       .  S
C553        C554   1.220   1_545  T
C555        C556   1.221       .  T
C556        C557   1.437       .  S
C557        C558   1.221       .  T
C559        C560   1.228       .  T
C561        C562   1.230       .  T
C563        C564   1.231       .  T
C565        C566   1.218       .  T
C566        C567   1.433       .  S
C567        C568   1.219       .  T
C569        C570   1.219       .  T
C570        C571   1.434       .  S
C571        C572   1.219       .  T
C573        C574   1.228       .  T
C575        C576   1.225       .  T
C577        C578   1.221       .  T
C578        C579   1.437       .  S
C579        C580   1.221       .  T
C581        C582   1.228       .  T
C583        C584   1.219       .  T
C584        C585   1.434       .  S
C585        C586   1.219       .  T
C587        C588   1.215       .  T
C588        C589   1.426       .  S
C589        C590   1.215       .  T
C591        C592   1.224       .  T
C592        C593   1.443       .  S
C593        C594   1.225       .  T
C595        C596   1.220       .  T
C596        C597   1.435       .  S
C597        C598   1.219       .  T
C599        C600   1.221       .  T
C600        C601   1.436       .  S
C601        C602   1.220       .  T
C603        C604   1.223       .  T
C604        C605   1.440       .  S
C605        C606   1.223       .  T
C607        C608   1.219       .  T
C608        C609   1.433       .  S
C609        C610   1.218       .  T
C611        C612   1.220       .  T
C612        C613   1.436       .  S
C613        C614   1.221       .  T
C615        C616   1.221       .  T
C616        C617   1.437       .  S
C617        C618   1.221       .  T
C619        C620   1.217       .  T
C620        C621   1.432       .  S
C621        C622   1.218       .  T
C623        C624   1.217       .  T
C624        C625   1.431       .  S
C625        C626   1.218       .  T
C627        C628   1.216       .  T
C628        C629   1.429       .  S
C629        C630   1.217       .  T
C631        C632   1.214       .  T
C632        C633   1.426       .  S
C633        C634   1.214       .  T
C635        C636   1.217       .  T
C636        C637   1.431       .  S
C637        C638   1.218       .  T
C639        C640   1.219       .  T
C640        C641   1.434       .  S
C641        C642   1.219       .  T
C643        C644   1.215       .  T
C644        C645   1.426       .  S
C645        C646   1.214       .  T
C647        C648   1.224       .  T
C648        C649   1.442       .  S
C649        C650   1.224       .  T
C651        C652   1.216       .  T
C652        C653   1.429       .  S
C653        C654   1.217       .  T
C655        C656   1.217       .  T
C656        C657   1.431       .  S
C657        C658   1.218       .  T
C659        C660   1.223       .  T
C660        C661   1.440       .  S
C661        C662   1.223       .  T
C663        C664   1.224       .  T
C664        C665   1.442       .  S
C665        C666   1.224       .  T
C667        C668   1.222       .  T
C668        C669   1.438       .  S
C669        C670   1.221       .  T
C671        C672   1.219       .  T
C672        C673   1.433       .  S
C673        C674   1.219       .  T
C675        C676   1.219       .  T
C676        C677   1.434       .  S
C677        C678   1.219       .  T
