geometry optimzed in LAMMPS
_audit_creation_date              2020-11-30 
_audit_creation_method            'lammps2cif' 
_symmetry_space_group_name_H-M    'P1' 
_symmetry_Int_Tables_number       1 
_symmetry_cell_setting            triclinic 
loop_ 
_symmetry_equiv_pos_as_xyz 
  x,y,z 
_cell_length_a                    40.261301586036105 
_cell_length_b                    39.203194415498515 
_cell_length_c                    39.664695350280105 
_cell_angle_alpha                 89.87940273956593 
_cell_angle_beta                  90.57896597258753 
_cell_angle_gamma                 89.0635826471754 
loop_ 
_atom_site_label 
_atom_site_type_symbol 
_atom_site_fract_x 
_atom_site_fract_y 
_atom_site_fract_z 
_atom_site_charge 
O1          O  0.58434351  0.06576982  0.51231625    -0.74250
O2          O  0.59675051  0.01401828  0.49083856    -0.53160
C3          C  0.60514644  0.04230085  0.50507483     0.79480
O4          O  0.48544829  0.93373247  0.58217002    -0.58850
O5          O  0.46306093  0.97934645  0.60670487    -0.51880
C6          C  0.47632786  0.94910104  0.60895521     0.71490
O7          O  0.58692282  0.93718970  0.52018529    -0.73410
O8          O  0.57974095  0.94600743  0.46431238    -0.53970
C9          C  0.59760936  0.93667485  0.48929096     0.77500
O10         O  0.50905867  0.06909291  0.59803316    -0.58550
O11         O  0.45558854  0.06319937  0.58408355    -0.51670
C12         C  0.47795104  0.07076157  0.60532533     0.74090
Zr13       Zr  0.53523863  0.05484690  0.54339234     2.54710
O14         O  0.58069905  0.06023362  0.58392208    -0.79120
O15         O  0.52973171  0.11667206  0.53961952    -0.92530
Zr16       Zr  0.53283067  0.95144491  0.54973076     2.64680
O17         O  0.56050780  0.95186639  0.60464900    -0.97490
O18         O  0.54762959  0.89112156  0.55175005    -0.79550
O19         O  0.55549384  0.99999569  0.52551083    -0.82910
O20         O  0.51274551  0.00617400  0.56905284    -2.17620
O21         O  0.41870081  0.07238069  0.48479153    -0.66300
O22         O  0.40553341  0.04491412  0.53357658    -0.50860
C23         C  0.39839907  0.06450037  0.50804103     0.72470
O24         O  0.48803791  0.92192679  0.43788936    -0.59210
O25         O  0.51857976  0.96447928  0.41682606    -0.51180
C26         C  0.49977718  0.93822820  0.41314419     0.74280
O27         O  0.40376273  0.94878954  0.51106928    -0.70600
O28         O  0.40679906  0.98075577  0.55856678    -0.49280
C29         C  0.39118709  0.96147193  0.53845625     0.75660
O30         O  0.50391389  0.05180153  0.41118280    -0.65930
O31         O  0.55474510  0.02800228  0.42090571    -0.53130
C32         C  0.53347256  0.04249281  0.40145923     0.74040
Zr33       Zr  0.47248518  0.05282478  0.46598550     2.77540
O34         O  0.43545117  0.07113620  0.42003564    -0.96680
O35         O  0.48811804  0.11245812  0.46934637    -0.77500
Zr36       Zr  0.45914156  0.95000126  0.48253999     2.70070
O37         O  0.41856622  0.94211345  0.43746877    -0.78750
O38         O  0.45476908  0.89054019  0.49951385    -0.97830
Zr39       Zr  0.54309665  0.99286889  0.46732585     2.21500
Zr40       Zr  0.45534657  0.01180819  0.55259547     2.11130
O41         O  0.44461715  0.00675445  0.49368205    -2.46520
O42         O  0.48581866  0.99570101  0.45299729    -0.78540
O43         O  0.47951010  0.05951338  0.52563669    -0.70740
O44         O  0.51774542  0.94502907  0.49300713    -2.31690
O45         O  0.52789437  0.04950839  0.48334954    -2.27900
O46         O  0.47421790  0.95564765  0.53888130    -0.72490
H47         H  0.51589201  0.00730255  0.59318266     0.79500
H48         H  0.52649189  0.92346042  0.48505220     0.80590
H49         H  0.42140494  0.00777071  0.48791729     0.82810
H50         H  0.54019162  0.06641605  0.47115300     0.80420
H51         H  0.53509894  0.88092239  0.53278970     0.43460
H52         H  0.44479495  0.89134141  0.52222016     0.42430
H53         H  0.41367924  0.96545313  0.42904900     0.42110
H54         H  0.41454683  0.05853791  0.42301132     0.40040
H55         H  0.47203894  0.12282496  0.48520150     0.43170
H56         H  0.54303203  0.12296596  0.51975970     0.37950
H57         H  0.58947660  0.08335512  0.58010887     0.44070
H58         H  0.57085011  0.97453148  0.60638493     0.40490
H59         H  0.42961001  0.09528114  0.42475313     0.45410
H60         H  0.54257318  0.12524254  0.55916865     0.44130
H61         H  0.57929300  0.93540915  0.60267956     0.44260
H62         H  0.43707330  0.88139150  0.48474965     0.44620
O63         O  0.05747612  0.58373015  0.49456802    -0.74250
O64         O  0.01586742  0.60130340  0.52939363    -0.53160
C65         C  0.04149605  0.60665312  0.51064108     0.79480
O66         O  0.91648749  0.50651505  0.42228765    -0.58850
O67         O  0.94933601  0.45939430  0.41305358    -0.51880
C68         C  0.92485280  0.47989555  0.40552304     0.71490
O69         O  0.91459539  0.58893452  0.50228903    -0.73410
O70         O  0.94528392  0.59292846  0.55063826    -0.53970
C71         C  0.92114511  0.60250021  0.53149303     0.77500
O72         O  0.05407525  0.50365073  0.41310239    -0.58550
O73         O  0.02370326  0.45530441  0.41055392    -0.51670
C74         C  0.04574133  0.47513075  0.39914490     0.74090
Zr75       Zr  0.03698352  0.53588201  0.46460291     2.54710
O76         O  0.03163738  0.58024645  0.42174209    -0.79120
O77         O  0.09720168  0.53519298  0.45920546    -0.92530
Zr78       Zr  0.93772384  0.53985406  0.46812277     2.64680
O79         O  0.94627663  0.58352441  0.42551586    -0.97490
O80         O  0.87808495  0.54727371  0.45969929    -0.79550
O81         O  0.98794712  0.56183859  0.48832566    -0.82910
O82         O  0.98668547  0.51497765  0.44315769    -2.17620
O83         O  0.06001027  0.42141988  0.51521370    -0.66300
O84         O  0.03133611  0.41048941  0.46652979    -0.50860
C85         C  0.05375726  0.40337562  0.48906696     0.72470
O86         O  0.91815311  0.49947014  0.57944477    -0.59210
O87         O  0.96104229  0.52827196  0.60025541    -0.51180
C88         C  0.93555903  0.50898197  0.60438479     0.74280
O89         O  0.92932233  0.40737235  0.50978748    -0.70600
O90         O  0.96050214  0.40506444  0.46234836    -0.49280
C91         C  0.93965584  0.39242457  0.48272005     0.75660
O92         O  0.05593215  0.50829025  0.59246292    -0.65930
O93         O  0.02304144  0.55597855  0.59344851    -0.53130
C94         C  0.04691568  0.53758649  0.60523423     0.74040
Zr95       Zr  0.03944682  0.47188412  0.54262642     2.77540
O96         O  0.03727648  0.43091624  0.58871473    -0.96680
O97         O  0.09981876  0.47260416  0.54557615    -0.77500
Zr98       Zr  0.93970791  0.46420463  0.53542070     2.70070
O99         O  0.93945169  0.42312592  0.58144190    -0.78750
O100        O  0.88079983  0.46082320  0.52151414    -0.97830
Zr101      Zr  0.98644241  0.54920454  0.54710075     2.21500
Zr102      Zr  0.99028665  0.45656321  0.45933439     2.11130
O103        O  0.99209473  0.44431128  0.51795097    -2.46520
O104        O  0.98723833  0.49026634  0.56121392    -0.78540
O105        O  0.03995649  0.47905960  0.48249619    -0.70740
O106        O  0.93698377  0.52462414  0.52503257    -2.31690
O107        O  0.03775098  0.52860612  0.52487911    -2.27900
O108        O  0.93906692  0.47940879  0.47842320    -0.72490
H109        H  0.98589902  0.51745131  0.41891732     0.79500
H110        H  0.91700406  0.53477937  0.53406695     0.80590
H111        H  0.99374456  0.42003568  0.52199437     0.82810
H112        H  0.05648671  0.53973740  0.53518357     0.80420
H113        H  0.86818896  0.53059471  0.47529300     0.43460
H114        H  0.87314364  0.43981965  0.53269313     0.42430
H115        H  0.96085658  0.42650159  0.59338268     0.42110
H116        H  0.02685178  0.41054297  0.57871624     0.40040
H117        H  0.10633305  0.48568640  0.52538795     0.43170
H118        H  0.10584516  0.53674217  0.48260141     0.37950
H119        H  0.01620731  0.59738191  0.43149247     0.44070
H120        H  0.94319507  0.57159180  0.40375789     0.40490
H121        H  0.06073903  0.42392321  0.59266186     0.45410
H122        H  0.10239966  0.55746382  0.44885970     0.44130
H123        H  0.92658109  0.59884860  0.42727455     0.44260
H124        H  0.87004717  0.47987714  0.53383744     0.44620
O125        O  0.40431553  0.50409644  0.93148158    -0.74250
O126        O  0.38852725  0.53456619  0.97760820    -0.53160
C127        C  0.38224892  0.51863346  0.94962624     0.79480
O128        O  0.48362937  0.42750590  0.07426961    -0.58850
O129        O  0.51180250  0.40028578  0.03449096    -0.51880
C130        C  0.49380907  0.39959352  0.06120208     0.71490
O131        O  0.38884134  0.49823855  0.05916695    -0.73410
O132        O  0.40158862  0.55341699  0.05250389    -0.53970
C133        C  0.38093521  0.53052331  0.05924415     0.77500
O134        O  0.48367271  0.42198556  0.92556709    -0.58550
O135        O  0.52774260  0.41040745  0.96047990    -0.51670
C136        C  0.51003604  0.40467886  0.93417854     0.74090
Zr137      Zr  0.45273197  0.47180235  0.94856833     2.54710
O138        O  0.41021402  0.42874840  0.94252809    -0.79120
O139        O  0.45644174  0.47919741  0.88772520    -0.92530
Zr140      Zr  0.44060439  0.46259494  0.04840206     2.64680
O141        O  0.40809437  0.41280608  0.03351089    -0.97490
O142        O  0.41564274  0.45024407  0.10252235    -0.79550
O143        O  0.42532271  0.49086760  0.99854410    -0.82910
O144        O  0.46785566  0.44201560  0.99817877    -2.17620
O145        O  0.56971703  0.51499944  0.95032992    -0.66300
O146        O  0.57824419  0.46170595  0.97165571    -0.50860
C147        C  0.58700965  0.48770313  0.95378513     0.72470
O148        O  0.49545335  0.57999227  0.08011922    -0.59210
O149        O  0.45801377  0.59914950  0.04039076    -0.51180
C150        C  0.47881577  0.60366867  0.06493778     0.74280
O151        O  0.56590268  0.48911500  0.08034711    -0.70600
O152        O  0.57047036  0.44506616  0.04330024    -0.49280
C153        C  0.58016097  0.46159028  0.06922302     0.75660
O154        O  0.49307908  0.60058214  0.95651837    -0.65930
O155        O  0.44064956  0.59794549  0.97665124    -0.53130
C156        C  0.46361014  0.61339752  0.96117750     0.74040
Zr157      Zr  0.51923578  0.54292443  0.96432080     2.77540
O158        O  0.56323480  0.58449668  0.95810364    -0.96680
O159        O  0.51296286  0.54635989  0.90335432    -0.77500
Zr160      Zr  0.51594094  0.52414130  0.06494637     2.70070
O161        O  0.56022166  0.55887753  0.08790288    -0.78750
O162        O  0.49980087  0.50985003  0.12221109    -0.97830
Zr163      Zr  0.44055725  0.54797065  0.00948978     2.21500
Zr164      Zr  0.52639161  0.45268739  0.00367524     2.11130
O165        O  0.54029478  0.51120674  0.01243960    -2.46520
O166        O  0.49804733  0.55695687  0.01710577    -0.78540
O167        O  0.50948227  0.48384500  0.95458607    -0.70740
O168        O  0.45735541  0.51863608  0.05976141    -2.31690
O169        O  0.46297692  0.53117257  0.95676566    -2.27900
O170        O  0.49957256  0.46842004  0.05492271    -0.72490
H171        H  0.46384945  0.41800555  0.99496990     0.79500
H172        H  0.44744637  0.52711158  0.08023438     0.80590
H173        H  0.56402847  0.51382704  0.01470883     0.82810
H174        H  0.45365963  0.54456284  0.93840346     0.80420
H175        H  0.42135692  0.47002004  0.11681986     0.43460
H176        H  0.50360403  0.48489065  0.12401735     0.42430
H177        H  0.57701416  0.55920421  0.06987161     0.42110
H178        H  0.58313689  0.57445316  0.96943682     0.40040
H179        H  0.50802381  0.52277349  0.89631765     0.43170
H180        H  0.44994985  0.50330311  0.88345355     0.37950
H181        H  0.39580000  0.43208535  0.96236254     0.44070
H182        H  0.42299434  0.39296593  0.03804818     0.40490
H183        H  0.56864303  0.58415276  0.93380486     0.45410
H184        H  0.43778226  0.46589168  0.87842558     0.44130
H185        H  0.39090320  0.41147219  0.05111396     0.44260
H186        H  0.51732553  0.51980728  0.13665724     0.44620
C187        C  0.54562618  0.91229683  0.73311015     0.04170
C188        C  0.56581681  0.88309588  0.74039594    -0.11980
C189        C  0.58866769  0.88244593  0.76775605     0.01670
C190        C  0.58684733  0.90905140  0.79161955    -0.10500
C191        C  0.56494843  0.93700667  0.78639568     0.04170
C192        C  0.54731609  0.93978793  0.75591005    -0.09920
H193        H  0.56421836  0.86043144  0.72516787     0.09760
H194        H  0.60198987  0.90791938  0.81432123     0.07290
H195        H  0.53319736  0.96305926  0.75123930     0.07140
C196        C  0.69299655  0.77284365  0.77269276     0.04170
C197        C  0.69132139  0.74203232  0.79175120    -0.11980
C198        C  0.71827643  0.71824884  0.79297378     0.01670
C199        C  0.74558763  0.72333629  0.77206110    -0.10500
C200        C  0.74730342  0.75225085  0.75155965     0.04170
C201        C  0.72236556  0.77772378  0.75379492    -0.09920
H202        H  0.66924787  0.73600697  0.80564202     0.09760
H203        H  0.76568327  0.70460013  0.77165560     0.07290
H204        H  0.72611274  0.80124274  0.74020253     0.07140
C205        C  0.89954499  0.77950017  0.62246990     0.04170
C206        C  0.90307073  0.75044879  0.60188201    -0.11980
C207        C  0.88164172  0.72257920  0.60541593     0.01670
C208        C  0.85655574  0.72435900  0.62993872    -0.10500
C209        C  0.85321706  0.75267601  0.65142791     0.04170
C210        C  0.87508398  0.77994859  0.64763836    -0.09920
H211        H  0.92193933  0.74992949  0.58260307     0.09760
H212        H  0.83961052  0.70335044  0.63253082     0.07290
H213        H  0.87188626  0.80251838  0.66307905     0.07140
C214        C  0.75156736  0.58014414  0.94147329     0.04170
C215        C  0.72351827  0.55989910  0.94403415    -0.11980
C216        C  0.70187345  0.55565787  0.91640472     0.01670
C217        C  0.70617352  0.57749467  0.88820247    -0.10500
C218        C  0.72962977  0.60382931  0.88881013     0.04170
C219        C  0.75397621  0.60324200  0.91455511    -0.09920
H220        H  0.72062430  0.54530849  0.96692614     0.09760
H221        H  0.69128050  0.57479690  0.86572892     0.07290
H222        H  0.77494323  0.62015283  0.91328456     0.07140
C223        C  0.25868017  0.31088540  0.74678484     0.04170
C224        C  0.28264264  0.28491367  0.75048156    -0.11980
C225        C  0.28334987  0.25713131  0.72848757     0.01670
C226        C  0.26017550  0.25568561  0.70190713    -0.10500
C227        C  0.23589492  0.28151533  0.69777909     0.04170
C228        C  0.23549245  0.30939252  0.72015287    -0.09920
H229        H  0.29988161  0.28554696  0.77165203     0.09760
H230        H  0.26019467  0.23377858  0.68528131     0.07290
H231        H  0.21628704  0.32896436  0.71779519     0.07140
C232        C  0.21091056  0.43248297  0.89688566     0.04170
C233        C  0.23525855  0.45474083  0.90834972    -0.11980
C234        C  0.26675183  0.45487159  0.89344126     0.01670
C235        C  0.27331068  0.43269358  0.86616803    -0.10500
C236        C  0.24837144  0.41088882  0.85402931     0.04170
C237        C  0.21717122  0.41155743  0.86927898    -0.09920
H238        H  0.22984689  0.47166302  0.92924016     0.09760
H239        H  0.29786021  0.43162700  0.85525452     0.07290
H240        H  0.19763161  0.39529646  0.85984676     0.07140
C241        C  0.39986859  0.09852619  0.78820737     0.04170
C242        C  0.42097929  0.09081296  0.76135991    -0.11980
C243        C  0.41998576  0.11066413  0.73211927     0.01670
C244        C  0.39712298  0.13761085  0.72913310    -0.10500
C245        C  0.37567711  0.14550216  0.75564185     0.04170
C246        C  0.37718654  0.12599932  0.78540892    -0.09920
H247        H  0.43862749  0.06970213  0.76347842     0.09760
H248        H  0.39534230  0.15186493  0.70570116     0.07290
H249        H  0.36170228  0.13288201  0.80660283     0.07140
C250        C  0.08142923  0.23382635  0.57809310     0.04170
C251        C  0.07525170  0.26088088  0.55553617    -0.11980
C252        C  0.09916062  0.28573034  0.54892042     0.01670
C253        C  0.12483552  0.28842719  0.57345906    -0.10500
C254        C  0.13001895  0.26340986  0.59855566     0.04170
C255        C  0.10918282  0.23507731  0.59956286    -0.09920
H256        H  0.05162188  0.26102288  0.54276430     0.09760
H257        H  0.14039638  0.31041683  0.57477241     0.07290
H258        H  0.11449601  0.21439410  0.61704963     0.07140
O259        O  0.55086388  0.99660827  0.92426699    -0.74250
O260        O  0.51017501  0.03650936  0.91485712    -0.53160
C261        C  0.53198547  0.01418179  0.90457400     0.79480
O262        O  0.41924796  0.93746681  0.02016232    -0.58850
O263        O  0.45805231  0.92299708  0.06027672    -0.51880
C264        C  0.43118104  0.91741346  0.04293750     0.71490
O265        O  0.43115494  0.01055216  0.92967607    -0.73410
O266        O  0.44395743  0.06535624  0.93850706    -0.53970
C267        C  0.43313765  0.04199099  0.91964478     0.77500
O268        O  0.56058230  0.92237249  0.00912670    -0.58550
O269        O  0.53482745  0.91899861  0.05992238    -0.51670
C270        C  0.55506388  0.90780294  0.03766295     0.74090
Zr271      Zr  0.54028008  0.97385657  0.97933233     2.54710
O272        O  0.53336707  0.92638691  0.94059209    -0.79120
O273        O  0.60055385  0.97347135  0.97435869    -0.92530
Zr274      Zr  0.44071908  0.98329959  0.98650766     2.64680
O275        O  0.42661652  0.93469846  0.95118849    -0.97490
O276        O  0.38195245  0.99887012  0.98926037    -0.79550
O277        O  0.48970760  0.99994819  0.95949789    -0.82910
O278        O  0.49113326  0.95473917  0.00507133    -2.17620
O279        O  0.57545877  0.01574880  0.09047810    -0.66300
O280        O  0.54495645  0.96973226  0.10520348    -0.50860
C281        C  0.57028955  0.98935579  0.10883161     0.72470
O282        O  0.43468450  0.10451561  0.03136579    -0.59210
O283        O  0.45948538  0.11153025  0.98021765    -0.51180
C284        C  0.43961052  0.12112840  0.00397392     0.74280
O285        O  0.44012573  0.02418691  0.11264735    -0.70600
O286        O  0.47019608  0.97440952  0.11437483    -0.49280
C287        C  0.45002560  0.99629076  0.12709051     0.75660
O288        O  0.56692341  0.09888374  0.01166760    -0.65930
O289        O  0.53318835  0.10241771  0.96510626    -0.53130
C290        C  0.55769510  0.11231986  0.98326864     0.74040
Zr291      Zr  0.55042348  0.04899685  0.04532758     2.77540
O292        O  0.55088246  0.09230107  0.08924684    -0.96680
O293        O  0.61036063  0.05236354  0.03984666    -0.77500
Zr294      Zr  0.45306231  0.05248204  0.05901257     2.70070
O295        O  0.46329956  0.09599429  0.10138616    -0.78750
O296        O  0.39302280  0.05651580  0.06505379    -0.97830
Zr297      Zr  0.49266556  0.05913453  0.97137085     2.21500
Zr298      Zr  0.49954602  0.96871256  0.06299774     2.11130
O299        O  0.50441665  0.02782440  0.07603028    -2.46520
O300        O  0.49929627  0.07422422  0.02909460    -0.78540
O301        O  0.54767451  0.98913525  0.03595978    -0.70740
O302        O  0.44469131  0.04100594  0.00090126    -2.31690
O303        O  0.54435890  0.03376131  0.98805387    -2.27900
O304        O  0.44818435  0.99417298  0.04541057    -0.72490
H305        H  0.48938974  0.93037344  0.00209854     0.79500
H306        H  0.42449040  0.05258756  0.99370748     0.80590
H307        H  0.50791783  0.03113041  0.09992617     0.82810
H308        H  0.56242243  0.04237697  0.97484890     0.80420
H309        H  0.37786481  0.01448966  0.96996596     0.43460
H310        H  0.38579240  0.03257488  0.06692282     0.42430
H311        H  0.47901692  0.11171347  0.09059800     0.42110
H312        H  0.55033970  0.07934982  0.11068536     0.40040
H313        H  0.61551792  0.03832120  0.01979331     0.43170
H314        H  0.60605248  0.99653635  0.96612378     0.37950
H315        H  0.55498313  0.92408033  0.92906659     0.44070
H316        H  0.43902592  0.91497554  0.96099615     0.40490
H317        H  0.57355329  0.10167358  0.08853393     0.45410
H318        H  0.60522657  0.95822881  0.95504765     0.44130
H319        H  0.40298230  0.93013596  0.95584827     0.44260
H320        H  0.38958459  0.06627478  0.08777831     0.44620
C321        C  0.23878573  0.80542079  0.76301560     0.04170
C322        C  0.26027806  0.80702848  0.79084055    -0.11980
C323        C  0.25925248  0.78236596  0.81647650     0.01670
C324        C  0.23554102  0.75597038  0.81402705    -0.10500
C325        C  0.21380212  0.75401993  0.78576567     0.04170
C326        C  0.21645294  0.77863811  0.76023565    -0.09920
H327        H  0.27855912  0.82699727  0.79195229     0.09760
H328        H  0.23422824  0.73707581  0.83389851     0.07290
H329        H  0.20063217  0.77726075  0.73801207     0.07140
C330        C  0.38895233  0.79969272  0.97658551     0.04170
C331        C  0.36512919  0.80388271  0.95013877    -0.11980
C332        C  0.36613356  0.78311560  0.92058776     0.01670
C333        C  0.39355681  0.76041924  0.91797593    -0.10500
C334        C  0.41252137  0.75107054  0.94642378     0.04170
C335        C  0.40921052  0.77004389  0.97593595    -0.09920
H336        H  0.34622197  0.82319974  0.95274995     0.09760
H337        H  0.39876610  0.74732638  0.89467682     0.07290
H338        H  0.42382133  0.76266483  0.99795238     0.07140
C339        C  0.21538400  0.95147961  0.62160126     0.04170
C340        C  0.24382722  0.95299324  0.60215213    -0.11980
C341        C  0.27121021  0.93188921  0.60905906     0.01670
C342        C  0.27060776  0.90943403  0.63641948    -0.10500
C343        C  0.24160752  0.90646453  0.65569705     0.04170
C344        C  0.21376235  0.92749148  0.64783567    -0.09920
H345        H  0.24445087  0.97041250  0.58085807     0.09760
H346        H  0.29264320  0.89439838  0.64269050     0.07290
H347        H  0.19063824  0.92435475  0.66113471     0.07140
C348        C  0.08576786  0.60496322  0.73032039     0.04170
C349        C  0.11102196  0.62951076  0.73322633    -0.11980
C350        C  0.11187912  0.65197128  0.76079593     0.01670
C351        C  0.08779709  0.64937558  0.78568144    -0.10500
C352        C  0.06479873  0.62287364  0.78539354     0.04170
C353        C  0.06331294  0.60112931  0.75717058    -0.09920
H354        H  0.12914503  0.63202078  0.71340231     0.09760
H355        H  0.08864045  0.66662101  0.80701299     0.07290
H356        H  0.04483085  0.58138275  0.75608756     0.07140
C357        C  0.75219949  0.18987884  0.24968700     0.04170
C358        C  0.78233629  0.19088258  0.26774971    -0.11980
C359        C  0.80417123  0.21793641  0.26305224     0.01670
C360        C  0.79698940  0.24261576  0.23811017    -0.10500
C361        C  0.76630109  0.24334263  0.22059960     0.04170
C362        C  0.74367717  0.21713806  0.22769432    -0.09920
H363        H  0.78868342  0.17091555  0.28571163     0.09760
H364        H  0.81535763  0.26177807  0.23309855     0.07290
H365        H  0.71929179  0.21749766  0.21599546     0.07140
C366        C  0.93470965  0.26720589  0.41072938     0.04170
C367        C  0.90965991  0.26051067  0.38656999    -0.11980
C368        C  0.91621611  0.24113133  0.35714928     0.01670
C369        C  0.94823472  0.22570857  0.35557540    -0.10500
C370        C  0.96876774  0.22351827  0.38466312     0.04170
C371        C  0.96377430  0.24711837  0.41056189    -0.09920
H372        H  0.88541907  0.27160341  0.39099620     0.09760
H373        H  0.95611609  0.21160590  0.33376170     0.07290
H374        H  0.98156154  0.24852347  0.43110793     0.07140
C375        C  0.70622155  0.39547688  0.09582393     0.04170
C376        C  0.73079144  0.40228941  0.07187133    -0.11980
C377        C  0.76112272  0.38389924  0.07232437     0.01670
C378        C  0.76638787  0.35785253  0.09612667    -0.10500
C379        C  0.74210660  0.35090265  0.12004461     0.04170
C380        C  0.71249949  0.37010596  0.12025371    -0.09920
H381        H  0.72687573  0.42261752  0.05363110     0.09760
H382        H  0.79005649  0.34428562  0.09722033     0.07290
H383        H  0.69408811  0.36491514  0.13925569     0.07140
C384        C  0.59973843  0.06270775  0.27352511     0.04170
C385        C  0.59903233  0.03876646  0.24718555    -0.11980
C386        C  0.62692355  0.03284688  0.22644579     0.01670
C387        C  0.65483810  0.05365832  0.23240836    -0.10500
C388        C  0.65331247  0.08217801  0.25411393     0.04170
C389        C  0.62556759  0.08608922  0.27502808    -0.09920
H390        H  0.57693041  0.02371940  0.24447028     0.09760
H391        H  0.67816248  0.04855025  0.22047406     0.07290
H392        H  0.62460237  0.10627009  0.29358211     0.07140
O393        O  0.89198109  0.56400172  0.99774123    -0.74250
O394        O  0.88373069  0.51227479  0.02174807    -0.53160
C395        C  0.87307419  0.54046860  0.00806238     0.79480
O396        O  0.99488477  0.43746065  0.92215912    -0.58850
O397        O  0.01609839  0.48578139  0.90240567    -0.51880
C398        C  0.00356610  0.45621182  0.89757905     0.71490
O399        O  0.89587396  0.43455489  0.98691407    -0.73410
O400        O  0.90218187  0.44319103  0.04282941    -0.53970
C401        C  0.88509053  0.43312689  0.01776375     0.77500
O402        O  0.97294301  0.58486938  0.92162213    -0.58550
O403        O  0.02233305  0.55690952  0.91587314    -0.51670
C404        C  0.00153273  0.58030720  0.90739049     0.74090
Zr405      Zr  0.94405664  0.55678882  0.96976252     2.54710
O406        O  0.90288711  0.56257454  0.92465844    -0.79120
O407        O  0.94083842  0.61748728  0.98249115    -0.92530
Zr408      Zr  0.94851117  0.45309284  0.95747097     2.64680
O409        O  0.91771706  0.45984331  0.90465231    -0.97490
O410        O  0.93931965  0.39319104  0.94513054    -0.79550
O411        O  0.92501484  0.50067646  0.98415661    -0.82910
O412        O  0.96693193  0.50938450  0.94191970    -2.17620
O413        O  0.05620862  0.57636117  0.02257572    -0.66300
O414        O  0.07170503  0.54857342  0.97449909    -0.50860
C415        C  0.07701175  0.56918228  0.99936242     0.72470
O416        O  0.00587237  0.42526401  0.07661899    -0.59210
O417        O  0.96071652  0.45750460  0.09165548    -0.51180
C418        C  0.98456743  0.43570554  0.09813005     0.74280
O419        O  0.06955044  0.43623560  0.98259108    -0.70600
O420        O  0.07355975  0.48240850  0.94856990    -0.49280
C421        C  0.08345925  0.45311675  0.95848872     0.75660
O422        O  0.97713023  0.54533885  0.09984287    -0.65930
O423        O  0.92667447  0.52335449  0.08786099    -0.53130
C424        C  0.94729902  0.53657904  0.10817690     0.74040
Zr425      Zr  0.00867567  0.54837671  0.04553881     2.77540
O426        O  0.05296950  0.55163159  0.08767897    -0.96680
O427        O  0.99443721  0.60782803  0.05679313    -0.77500
Zr428      Zr  0.02342447  0.44720435  0.02327869     2.70070
O429        O  0.07396749  0.44526768  0.05749294    -0.78750
O430        O  0.02299726  0.38541710  0.01757620    -0.97830
Zr431      Zr  0.93875012  0.48932847  0.04130161     2.21500
Zr432      Zr  0.02432199  0.51352266  0.95703453     2.11130
O433        O  0.03791232  0.50450071  0.01477554    -2.46520
O434        O  0.99586457  0.49094834  0.05521910    -0.78540
O435        O  0.99997121  0.55978757  0.98673409    -0.70740
O436        O  0.96484801  0.44253091  0.01359033    -2.31690
O437        O  0.95282885  0.54690451  0.02876389    -2.27900
O438        O  0.00709217  0.45670774  0.96766038    -0.72490
H439        H  0.96315326  0.51301247  0.91822311     0.79500
H440        H  0.95720150  0.42069523  0.02140562     0.80590
H441        H  0.06144432  0.50585874  0.01914755     0.82810
H442        H  0.93997325  0.56328163  0.04153777     0.80420
H443        H  0.95111102  0.38074812  0.96353742     0.43460
H444        H  0.01881923  0.38154412  0.99325017     0.42430
H445        H  0.07078159  0.46365520  0.07429056     0.42110
H446        H  0.07256424  0.54048638  0.07723400     0.40040
H447        H  0.99841603  0.61973069  0.03520067     0.43170
H448        H  0.93520911  0.61867380  0.00670383     0.37950
H449        H  0.89015414  0.54122518  0.92559667     0.44070
H450        H  0.90615684  0.48222485  0.90638531     0.40490
H451        H  0.05857270  0.57609472  0.08903542     0.45410
H452        H  0.92049432  0.62572412  0.97060231     0.44130
H453        H  0.89989178  0.44279300  0.90567889     0.44260
H454        H  0.04643510  0.37816696  0.02121693     0.44620
C455        C  0.27645322  0.11289998  0.44596576     0.04170
C456        C  0.28042272  0.13375695  0.41741504    -0.11980
C457        C  0.25557463  0.13536759  0.39224172     0.01670
C458        C  0.22770195  0.11444046  0.39528183    -0.10500
C459        C  0.22212625  0.09490352  0.42453178     0.04170
C460        C  0.24629378  0.09582405  0.45045628    -0.09920
H461        H  0.30355586  0.14694683  0.41377086     0.09760
H462        H  0.21031843  0.11340316  0.37435449     0.07290
H463        H  0.24304027  0.08117139  0.47329667     0.07140
C464        C  0.26537504  0.24240768  0.21684238     0.04170
C465        C  0.27166906  0.22409933  0.24714201    -0.11980
C466        C  0.24774618  0.22266213  0.27286275     0.01670
C467        C  0.21815228  0.24193937  0.26947049    -0.10500
C468        C  0.21166110  0.26134071  0.24031822     0.04170
C469        C  0.23444931  0.26000329  0.21361343    -0.09920
H470        H  0.29528158  0.21105626  0.25110770     0.09760
H471        H  0.20030320  0.24216360  0.28974430     0.07290
H472        H  0.22818693  0.27358380  0.19057769     0.07140
C473        C  0.04751640  0.38481414  0.22000441     0.04170
C474        C  0.07440760  0.36174431  0.21606474    -0.11980
C475        C  0.09848668  0.35756171  0.24187945     0.01670
C476        C  0.09593778  0.37818022  0.27085413    -0.10500
C477        C  0.06872875  0.40073582  0.27590562     0.04170
C478        C  0.04387688  0.40240373  0.25070087    -0.09920
H479        H  0.07755645  0.34851517  0.19233061     0.09760
H480        H  0.11566719  0.37671657  0.28953853     0.07290
H481        H  0.02245101  0.41908659  0.25381106     0.07140
C482        C  0.41046325  0.28607746  0.08619652     0.04170
C483        C  0.40399787  0.27084269  0.05486920    -0.11980
C484        C  0.38528417  0.24098632  0.05177331     0.01670
C485        C  0.36518152  0.23269204  0.07991817    -0.10500
C486        C  0.36620742  0.25194547  0.10992928     0.04170
C487        C  0.39129492  0.27616892  0.11388514    -0.09920
H488        H  0.41529044  0.28226651  0.03345973     0.09760
H489        H  0.34894216  0.21118480  0.07952074     0.07290
H490        H  0.39507970  0.28741462  0.13843649     0.07140
C491        C  0.78282180  0.28204426  0.74057685     0.04170
C492        C  0.75621073  0.28231587  0.76324600    -0.11980
C493        C  0.73097890  0.25815544  0.76077385     0.01670
C494        C  0.73250083  0.23327773  0.73547274    -0.10500
C495        C  0.75884912  0.23238744  0.71262882     0.04170
C496        C  0.78393558  0.25692932  0.71510192    -0.09920
H497        H  0.75527148  0.30122855  0.78312402     0.09760
H498        H  0.71338893  0.21416773  0.73389596     0.07290
H499        H  0.80440219  0.25621149  0.69758397     0.07140
C500        C  0.93908064  0.40443641  0.77945670     0.04170
C501        C  0.94545084  0.42171228  0.74937729    -0.11980
C502        C  0.92091069  0.42477591  0.72436072     0.01670
C503        C  0.89195305  0.40512468  0.72787242    -0.10500
C504        C  0.88816998  0.38236752  0.75495840     0.04170
C505        C  0.91109252  0.38369198  0.78189612    -0.09920
H506        H  0.96847396  0.43534043  0.74723220     0.09760
H507        H  0.87228550  0.40691780  0.70919438     0.07290
H508        H  0.90664185  0.36960090  0.80489208     0.07140
C509        C  0.57469897  0.28313986  0.88429347     0.04170
C510        C  0.57168600  0.25457603  0.90539467    -0.11980
C511        C  0.59439113  0.22694943  0.90357496     0.01670
C512        C  0.61998422  0.22821005  0.87971424    -0.10500
C513        C  0.62241367  0.25567093  0.85713151     0.04170
C514        C  0.59921356  0.28265784  0.85925492    -0.09920
H515        H  0.55233846  0.25444414  0.92413901     0.09760
H516        H  0.63832916  0.20775865  0.87875447     0.07290
H517        H  0.60154135  0.30449563  0.84271179     0.07140
C518        C  0.71883349  0.08122336  0.58248374     0.04170
C519        C  0.72186372  0.10970034  0.60376034    -0.11980
C520        C  0.75281072  0.11703906  0.61930679     0.01670
C521        C  0.78032645  0.09515114  0.61253804    -0.10500
C522        C  0.77643816  0.06605612  0.59217513     0.04170
C523        C  0.74565911  0.05916378  0.57812885    -0.09920
H524        H  0.70027341  0.12583409  0.60819055     0.09760
H525        H  0.80469864  0.10093148  0.62258606     0.07290
H526        H  0.74292294  0.03694517  0.56208561     0.07140
C527        C  0.73017860  0.68985514  0.27248868     0.04170
C528        C  0.73935111  0.71965392  0.28988680    -0.11980
C529        C  0.71755505  0.74766429  0.29227459     0.01670
C530        C  0.68793085  0.74826989  0.27391293    -0.10500
C531        C  0.67904398  0.72029860  0.25434677     0.04170
C532        C  0.69913690  0.69041519  0.25513925    -0.09920
H533        H  0.76334775  0.72119970  0.30228455     0.09760
H534        H  0.67201332  0.77084636  0.27441194     0.07290
H535        H  0.69055852  0.66820087  0.24176026     0.07140
C536        C  0.77784649  0.90155571  0.40880971     0.04170
C537        C  0.75325712  0.91034896  0.43228419    -0.11980
C538        C  0.72304879  0.89278742  0.43269202     0.01670
C539        C  0.71762487  0.86665229  0.40938305    -0.10500
C540        C  0.74219834  0.85738169  0.38616690     0.04170
C541        C  0.77217842  0.87496200  0.38604188    -0.09920
H542        H  0.75736069  0.93106734  0.44980324     0.09760
H543        H  0.69374256  0.85428123  0.40856008     0.07290
H544        H  0.79152552  0.86748917  0.36860198     0.07140
C545        C  0.86668107  0.53326497  0.28799974     0.04170
C546        C  0.88041359  0.53058359  0.25599201    -0.11980
C547        C  0.87632420  0.55651434  0.23219885     0.01670
C548        C  0.85394259  0.58329299  0.23819193    -0.10500
C549        C  0.83467324  0.58349072  0.26759725     0.04170
C550        C  0.84254695  0.55936898  0.29324992    -0.09920
H551        H  0.89562666  0.50854563  0.24964356     0.09760
H552        H  0.85015081  0.60279295  0.21907360     0.07290
H553        H  0.82987419  0.56098060  0.31701591     0.07140
C554        C  0.56520343  0.78033479  0.10361895     0.04170
C555        C  0.55047067  0.75001977  0.09239518    -0.11980
C556        C  0.54039348  0.72469300  0.11478595     0.01670
C557        C  0.55274176  0.72463249  0.14772439    -0.10500
C558        C  0.57274814  0.75135573  0.15844867     0.04170
C559        C  0.57452799  0.78098239  0.13829857    -0.09920
H560        H  0.54837317  0.74405768  0.06611920     0.09760
H561        H  0.55020251  0.70208872  0.16330006     0.07290
H562        H  0.58564751  0.80300392  0.14965369     0.07140
C563        C  0.22105497  0.74854612  0.28599798     0.04170
C564        C  0.24687562  0.77216219  0.28728155    -0.11980
C565        C  0.26695086  0.77711307  0.25904185     0.01670
C566        C  0.25987035  0.75965669  0.22905158    -0.10500
C567        C  0.23613934  0.73356582  0.22804513     0.04170
C568        C  0.21728362  0.72793168  0.25730918    -0.09920
H569        H  0.25070333  0.78731452  0.30976030     0.09760
H570        H  0.27354173  0.76622233  0.20666995     0.07290
H571        H  0.19904050  0.70798488  0.25786635     0.07140
C572        C  0.42142002  0.89906143  0.29809740     0.04170
C573        C  0.42841432  0.92045676  0.27125339    -0.11980
C574        C  0.41235273  0.91756535  0.24029824     0.01670
C575        C  0.38803746  0.89236913  0.23611078    -0.10500
C576        C  0.37860665  0.87148642  0.26359341     0.04170
C577        C  0.39584712  0.87524904  0.29478363    -0.09920
H578        H  0.44630733  0.94052018  0.27500725     0.09760
H579        H  0.37651364  0.88929884  0.21156828     0.07290
H580        H  0.38886198  0.86051718  0.31663574     0.07140
C581        C  0.08930438  0.71999806  0.43725676     0.04170
C582        C  0.11247626  0.71810898  0.41084300    -0.11980
C583        C  0.12061599  0.74787710  0.39233082     0.01670
C584        C  0.10358947  0.77882248  0.40018494    -0.10500
C585        C  0.07957944  0.77972032  0.42569740     0.04170
C586        C  0.07397123  0.75084612  0.44467995    -0.09920
H587        H  0.12356518  0.69364571  0.40449187     0.09760
H588        H  0.10882829  0.80208544  0.38663590     0.07290
H589        H  0.05571412  0.75194112  0.46465067     0.07140
C590        C  0.19778640  0.61245325  0.06375923     0.04170
C591        C  0.22761426  0.59427520  0.05930505    -0.11980
C592        C  0.25220519  0.59401994  0.08418809     0.01670
C593        C  0.24877992  0.61510928  0.11222988    -0.10500
C594        C  0.22231459  0.63901464  0.11412980     0.04170
C595        C  0.19604180  0.63656651  0.09020317    -0.09920
H596        H  0.23103761  0.57855122  0.03710166     0.09760
H597        H  0.26829954  0.61473134  0.13123899     0.07290
H598        H  0.17442058  0.65301647  0.09209946     0.07140
O599        O  0.00676630  0.91404806  0.43915349    -0.74250
O600        O  0.97489877  0.89829705  0.48300490    -0.53160
C601        C  0.99411488  0.89147877  0.45789137     0.79480
O602        O  0.07728491  0.99152375  0.57681684    -0.58850
O603        O  0.09171247  0.03289418  0.53890757    -0.51880
C604        C  0.09818018  0.01138851  0.56313053     0.71490
O605        O  0.99132949  0.91674882  0.58252855    -0.73410
O606        O  0.94798460  0.90970871  0.54630877    -0.53970
C607        C  0.96420570  0.90164635  0.57302056     0.77500
O608        O  0.08938391  0.99203622  0.44436768    -0.58550
O609        O  0.08886870  0.04425442  0.46958127    -0.51670
C610        C  0.10183095  0.02179134  0.45022430     0.74090
Zr611      Zr  0.03667774  0.96245894  0.45860699     2.54710
O612        O  0.07750699  0.91607156  0.45844513    -0.79120
O613        O  0.03972976  0.96662641  0.39745835    -0.92530
Zr614      Zr  0.02564358  0.96585301  0.56146238     2.64680
O615        O  0.06297275  0.91834162  0.57579929    -0.97490
O616        O  0.01977375  0.98041956  0.62077951    -0.79550
O617        O  0.01182246  0.94065962  0.50934552    -0.82910
O618        O  0.05185975  0.98558501  0.51065107    -2.17620
O619        O  0.00207759  0.06504402  0.42180817    -0.66300
O620        O  0.03141675  0.09181943  0.46233709    -0.50860
C621        C  0.01554632  0.09183626  0.43368626     0.72470
O622        O  0.91056002  0.01570633  0.56587888    -0.59210
O623        O  0.90048390  0.97067511  0.53083882    -0.51180
C624        C  0.89164396  0.99357717  0.55262770     0.74280
O625        O  0.98588743  0.09617258  0.56173458    -0.70600
O626        O  0.03752876  0.09482238  0.53867358    -0.49280
C627        C  0.01420311  0.10938731  0.55535391     0.75660
O628        O  0.91523287  0.99209839  0.42954972    -0.65930
O629        O  0.91212620  0.94648381  0.46470492    -0.53130
C630        C  0.90244016  0.96340247  0.43887119     0.74040
Zr631      Zr  0.96270184  0.02811980  0.44884292     2.77540
O632        O  0.92171114  0.07454859  0.44927604    -0.96680
O633        O  0.95720189  0.01679162  0.38880143    -0.77500
Zr634      Zr  0.96108103  0.04069914  0.54934031     2.70070
O635        O  0.91720225  0.08368340  0.54238724    -0.78750
O636        O  0.96147850  0.04461019  0.61059552    -0.97830
Zr637      Zr  0.95398461  0.95321178  0.50564254     2.21500
Zr638      Zr  0.04111144  0.04507084  0.50419220     2.11130
O639        O  0.98324725  0.05800029  0.49747931    -2.46520
O640        O  0.94004424  0.01188510  0.50065468    -0.78540
O641        O  0.02152671  0.01993950  0.45333337    -0.70740
O642        O  0.96960858  0.98080339  0.55639269    -2.31690
O643        O  0.97801775  0.97079222  0.45418948    -2.27900
O644        O  0.01763208  0.02638183  0.55596974    -0.72490
H645        H  0.07549616  0.98110632  0.51167826     0.79500
H646        H  0.95738183  0.97262264  0.57552032     0.80590
H647        H  0.97918555  0.08220820  0.49477302     0.82810
H648        H  0.96899487  0.95898586  0.43494024     0.80420
H649        H  0.99679844  0.97406302  0.62646181     0.43460
H650        H  0.98467577  0.05017639  0.61667574     0.42430
H651        H  0.90410603  0.07586544  0.52268460     0.42110
H652        H  0.93461161  0.09576522  0.44792005     0.40040
H653        H  0.98004273  0.01116942  0.38139332     0.43170
H654        H  0.01776308  0.95919421  0.38909609     0.37950
H655        H  0.07258741  0.90270255  0.47890665     0.44070
H656        H  0.07473524  0.91295840  0.55466974     0.40490
H657        H  0.90967804  0.07299629  0.42747660     0.45410
H658        H  0.05523580  0.94796679  0.39095361     0.44130
H659        H  0.08018515  0.92775373  0.59097614     0.44260
H660        H  0.94857820  0.06570802  0.61550321     0.44620
C661        C  0.00785737  0.85697252  0.45235617    -0.04290
C662        C  0.00761632  0.84320665  0.41948680    -0.01410
C663        C  0.03115924  0.81793481  0.41049283     0.03580
C664        C  0.05758172  0.80941028  0.43283350    -0.04290
C665        C  0.05761618  0.82311860  0.46574561    -0.01400
C666        C  0.03152690  0.84479921  0.47603695     0.03570
C667        C  0.98361677  0.85562553  0.39465980     0.38230
C668        C  0.08450096  0.81465862  0.48916884     0.38220
C669        C  0.03022569  0.85614748  0.51066358     0.36640
C670        C  0.02659758  0.79919366  0.37940006     0.36640
N671        N  0.02911922  0.86480576  0.53843733    -0.38180
N672        N  0.02175150  0.78386149  0.35500598    -0.38180
N673        N  0.10596368  0.80794171  0.50777219    -0.37620
N674        N  0.96470175  0.86557259  0.37463741    -0.37630
C675        C  0.23159681  0.71190015  0.19680116    -0.04290
C676        C  0.19958551  0.70138734  0.18589453    -0.01410
C677        C  0.19619053  0.67663610  0.16013663     0.03580
C678        C  0.22396703  0.66667657  0.14056752    -0.04290
C679        C  0.25483359  0.68222923  0.14771773    -0.01400
C680        C  0.25938869  0.70102944  0.17758470     0.03570
C681        C  0.16977001  0.71649203  0.20017943     0.38230
C682        C  0.28207671  0.67978159  0.12400316     0.38220
C683        C  0.29316819  0.70684104  0.18912511     0.36640
C684        C  0.16422153  0.66081932  0.15513059     0.36640
N685        N  0.32018036  0.71123243  0.19818923    -0.38180
N686        N  0.13859708  0.64833146  0.15137229    -0.38180
N687        N  0.30375315  0.67805632  0.10509934    -0.37620
N688        N  0.14574526  0.72839854  0.21120204    -0.37630
C689        C  0.19567687  0.74767618  0.31317459    -0.04290
C690        C  0.20224979  0.73101446  0.34403108    -0.01410
C691        C  0.17811400  0.73111748  0.36983263     0.03580
C692        C  0.14630205  0.74681323  0.36458941    -0.04290
C693        C  0.13968703  0.76243281  0.33274630    -0.01400
C694        C  0.16450876  0.76374548  0.30783986     0.03570
C695        C  0.23401086  0.71364452  0.34910867     0.38230
C696        C  0.10714219  0.77653894  0.32449606     0.38220
C697        C  0.15826459  0.78256366  0.27675454     0.36640
C698        C  0.18698506  0.71582835  0.40198987     0.36640
N699        N  0.15348630  0.79783325  0.25212765    -0.38180
N700        N  0.19489831  0.70325700  0.42728213    -0.38180
N701        N  0.08166698  0.78827569  0.31669994    -0.37620
N702        N  0.25932504  0.69969835  0.35296382    -0.37630
C703        C  0.29532664  0.80111684  0.26024708    -0.04290
C704        C  0.29210286  0.83360509  0.24548058    -0.01410
C705        C  0.31916704  0.85616585  0.24552859     0.03580
C706        C  0.35030733  0.84650387  0.26045247    -0.04290
C707        C  0.35372699  0.81278168  0.27353690    -0.01400
C708        C  0.32628050  0.79061394  0.27397371     0.03570
C709        C  0.26054755  0.84384330  0.23013363     0.38230
C710        C  0.38589235  0.79981522  0.28485412     0.38220
C711        C  0.32999832  0.75652996  0.28800420     0.36640
C712        C  0.31400620  0.88891163  0.22940064     0.36640
N713        N  0.33282330  0.72933970  0.29919902    -0.38180
N714        N  0.30803704  0.91398918  0.21506545    -0.38180
N715        N  0.41140698  0.78901577  0.29382167    -0.37620
N716        N  0.23543185  0.85189967  0.21783244    -0.37630
C717        C  0.81116439  0.91730808  0.41028253    -0.04290
C718        C  0.81593924  0.95195599  0.40178143    -0.01410
C719        C  0.84734691  0.96703636  0.40686379     0.03580
C720        C  0.87394676  0.94741212  0.42060233    -0.04290
C721        C  0.87012798  0.91146513  0.42351171    -0.01400
C722        C  0.83872944  0.89687723  0.41986886     0.03570
C723        C  0.78873476  0.97213804  0.38771644     0.38230
C724        C  0.89816463  0.88905486  0.43167818     0.38220
C725        C  0.83453237  0.86100034  0.42800715     0.36640
C726        C  0.85191040  0.00262123  0.39841988     0.36640
N727        N  0.83117855  0.83248949  0.43457176    -0.38180
N728        N  0.85550428  0.03100324  0.39147144    -0.38180
N729        N  0.91976787  0.87047165  0.43864549    -0.37620
N730        N  0.76757317  0.98879467  0.37608792    -0.37630
C731        C  0.59939333  0.74366968  0.18387970    -0.04290
C732        C  0.63235287  0.73850437  0.17256465    -0.01410
C733        C  0.65807601  0.73029128  0.19559929     0.03580
C734        C  0.65097697  0.72488098  0.22993454    -0.04290
C735        C  0.61790449  0.72884407  0.24119432    -0.01400
C736        C  0.59217930  0.73831359  0.21823549     0.03570
C737        C  0.63983207  0.74059110  0.13687347     0.38230
C738        C  0.61053359  0.72359070  0.27650878     0.38220
C739        C  0.55842720  0.74288680  0.22995534     0.36640
C740        C  0.69222316  0.72954950  0.18417713     0.36640
N741        N  0.53147937  0.74654029  0.23933627    -0.38180
N742        N  0.71941612  0.72956632  0.17500158    -0.38180
N743        N  0.60479279  0.71940923  0.30473404    -0.37620
N744        N  0.64577167  0.74208495  0.10842547    -0.37630
C745        C  0.80582778  0.60828961  0.27029919    -0.04290
C746        C  0.80049588  0.62780166  0.29969932    -0.01410
C747        C  0.77309086  0.65069571  0.30160308     0.03580
C748        C  0.75390826  0.65931420  0.27229452    -0.04290
C749        C  0.75961720  0.63980647  0.24266510    -0.01400
C750        C  0.78344196  0.61288047  0.24274021     0.03570
C751        C  0.82393911  0.62583765  0.32771443     0.38230
C752        C  0.74244648  0.64764635  0.21122435     0.38220
C753        C  0.78435587  0.58948381  0.21435732     0.36640
C754        C  0.76453404  0.66432589  0.33441594     0.36640
N755        N  0.78497084  0.57079531  0.19180782    -0.38180
N756        N  0.75846331  0.67467924  0.36097698    -0.38180
N757        N  0.72907920  0.65304330  0.18575567    -0.37620
N758        N  0.84262152  0.62443394  0.35006762    -0.37630
C759        C  0.73647406  0.82918732  0.36185587    -0.04290
C760        C  0.72733565  0.79664791  0.37374287    -0.01410
C761        C  0.72019663  0.77048324  0.35075590     0.03580
C762        C  0.72472958  0.77568367  0.31594593    -0.04290
C763        C  0.73456462  0.80776174  0.30391652    -0.01400
C764        C  0.73968209  0.83473489  0.32671908     0.03570
C765        C  0.72592534  0.78965099  0.40964563     0.38230
C766        C  0.73906631  0.81301358  0.26803940     0.38220
C767        C  0.74718098  0.86838648  0.31383281     0.36640
C768        C  0.70637203  0.73878806  0.36279030     0.36640
N769        N  0.75317376  0.89523033  0.30357892    -0.38180
N770        N  0.69471113  0.71382122  0.37234918    -0.38180
N771        N  0.74266756  0.81711598  0.23941386    -0.37620
N772        N  0.72485308  0.78388873  0.43823548    -0.37630
C773        C  0.80448796  0.04356407  0.58193565    -0.04290
C774        C  0.82036611  0.02140204  0.60528988    -0.01410
C775        C  0.84713758  0.00046118  0.59491395     0.03580
C776        C  0.85657821  0.99983985  0.56068153    -0.04290
C777        C  0.83789160  0.01883957  0.53676787    -0.01400
C778        C  0.81272091  0.04145172  0.54739823     0.03570
C779        C  0.80891642  0.01955433  0.63973217     0.38230
C780        C  0.84734770  0.01855449  0.50162214     0.38220
C781        C  0.79624640  0.06366642  0.52280913     0.36640
C782        C  0.86662729  0.98153816  0.61983478     0.36640
N783        N  0.78305614  0.08127356  0.50322251    -0.38180
N784        N  0.88227654  0.96661899  0.63975939    -0.38180
N785        N  0.85489170  0.01895344  0.47360415    -0.37620
N786        N  0.79973977  0.01712476  0.66716135    -0.37630
C787        C  0.76044868  0.20419609  0.68739086    -0.04290
C788        C  0.77369659  0.17207385  0.69688302    -0.01410
C789        C  0.77114284  0.14378317  0.67496292     0.03580
C790        C  0.75639201  0.14748189  0.64240614    -0.04290
C791        C  0.74451961  0.18041277  0.63249777    -0.01400
C792        C  0.74589382  0.20828013  0.65514631     0.03570
C793        C  0.78942900  0.16804085  0.72978431     0.38230
C794        C  0.73122606  0.18616943  0.59884033     0.38220
C795        C  0.73155840  0.24114071  0.64561493     0.36640
C796        C  0.78235404  0.11065216  0.68711835     0.36640
N797        N  0.71997477  0.26733266  0.63817025    -0.38180
N798        N  0.79154052  0.08459096  0.69762891    -0.38180
N799        N  0.72041502  0.19125932  0.57213285    -0.37620
N800        N  0.80204178  0.16498170  0.75598757    -0.37630
C801        C  0.70326851  0.25823769  0.78544023    -0.04290
C802        C  0.67022354  0.26438263  0.77450112    -0.01410
C803        C  0.64381522  0.26293099  0.79762071     0.03580
C804        C  0.65032379  0.25695488  0.83236574    -0.04290
C805        C  0.68372803  0.25226898  0.84339280    -0.01400
C806        C  0.70984814  0.25187796  0.81992590     0.03570
C807        C  0.66346450  0.27293692  0.73944971     0.38230
C808        C  0.69159599  0.24880471  0.87904188     0.38220
C809        C  0.74352663  0.24399121  0.83119441     0.36640
C810        C  0.60991293  0.26686904  0.78528312     0.36640
N811        N  0.77037819  0.23753343  0.84005718    -0.38180
N812        N  0.58290120  0.27016518  0.77540111    -0.38180
N813        N  0.69790192  0.24596838  0.90745373    -0.37620
N814        N  0.65819073  0.27994526  0.71152489    -0.37630
C815        C  0.80979021  0.30776482  0.74452803    -0.04290
C816        C  0.84286239  0.29713209  0.75160097    -0.01410
C817        C  0.86819646  0.32142488  0.75575220     0.03580
C818        C  0.86066365  0.35685142  0.75410113    -0.04290
C819        C  0.82724736  0.36744898  0.74849581    -0.01400
C820        C  0.80219327  0.34312688  0.74297003     0.03570
C821        C  0.85081565  0.26107707  0.75530464     0.38230
C822        C  0.81838563  0.40347077  0.74897850     0.38220
C823        C  0.76863391  0.35461109  0.73470954     0.36640
C824        C  0.90227646  0.30970447  0.76064926     0.36640
N825        N  0.74187159  0.36371004  0.72803906    -0.38180
N826        N  0.92944330  0.30030737  0.76456665    -0.38180
N827        N  0.81131880  0.43220267  0.74932480    -0.37620
N828        N  0.85713470  0.23232223  0.75833188    -0.37630
C829        C  0.29131302  0.24425501  0.18910196    -0.04290
C830        C  0.29763304  0.27562813  0.17234708    -0.01410
C831        C  0.32010715  0.27702229  0.14520062     0.03580
C832        C  0.34014938  0.24845850  0.13672431    -0.04290
C833        C  0.33497429  0.21739199  0.15377564    -0.01400
C834        C  0.30995780  0.21489942  0.17869223     0.03570
C835        C  0.28225797  0.30735754  0.18331714     0.38230
C836        C  0.35566448  0.18788365  0.14590101     0.38220
C837        C  0.30323496  0.18152846  0.19251119     0.36640
C838        C  0.32120414  0.30767034  0.12462813     0.36640
N839        N  0.29871342  0.15448349  0.20304822    -0.38180
N840        N  0.32149931  0.33186129  0.10786616    -0.38180
N841        N  0.37220063  0.16436614  0.13962179    -0.37620
N842        N  0.27032902  0.33312106  0.19125216    -0.37630
C843        C  0.18249641  0.28570726  0.23905851    -0.04290
C844        C  0.14985099  0.27416509  0.23339645    -0.01410
C845        C  0.12246219  0.29748822  0.23360894     0.03580
C846        C  0.12750470  0.33290017  0.23854114    -0.04290
C847        C  0.16047588  0.34436288  0.24300850    -0.01400
C848        C  0.18746103  0.32084242  0.24460664     0.03570
C849        C  0.14443512  0.23810549  0.22801566     0.38230
C850        C  0.16688767  0.38058662  0.24553522     0.38220
C851        C  0.22017863  0.33262374  0.25418733     0.36640
C852        C  0.08901859  0.28472222  0.23000364     0.36640
N853        N  0.24610000  0.34197117  0.26253742    -0.38180
N854        N  0.06234249  0.27447395  0.22714238    -0.38180
N855        N  0.17193796  0.40949245  0.24753167    -0.37620
N856        N  0.14019571  0.20929844  0.22376429    -0.37630
C857        C  0.19154204  0.07295316  0.42716323    -0.04290
C858        C  0.16005562  0.08564345  0.41582760    -0.01410
C859        C  0.13180294  0.06489937  0.41705602     0.03580
C860        C  0.13294403  0.03323399  0.43389278    -0.04290
C861        C  0.16408174  0.01939011  0.44339120    -0.01400
C862        C  0.19330270  0.03876995  0.43971241     0.03570
C863        C  0.15558445  0.12091678  0.40527693     0.38230
C864        C  0.16638065  0.98485597  0.45628809     0.38220
C865        C  0.22464990  0.02300485  0.44986662     0.36640
C866        C  0.10122663  0.07574269  0.40031666     0.36640
N867        N  0.24883399  0.00944575  0.45907103    -0.38180
N868        N  0.07720924  0.08383336  0.38595955    -0.38180
N869        N  0.16953615  0.95703414  0.46567554    -0.37620
N870        N  0.15200442  0.14903628  0.39684234    -0.37630
C871        C  0.25855395  0.15779849  0.36166715    -0.04290
C872        C  0.25698150  0.14342523  0.32901152    -0.01410
C873        C  0.25313804  0.16454857  0.30025877     0.03580
C874        C  0.25329984  0.20046912  0.30337687    -0.04290
C875        C  0.25696205  0.21493371  0.33583630    -0.01400
C876        C  0.25911368  0.19376888  0.36484782     0.03570
C877        C  0.25919543  0.10667246  0.32497574     0.38230
C878        C  0.25779450  0.25171810  0.33943078     0.38220
C879        C  0.26042986  0.20913844  0.39805570     0.36640
C880        C  0.24612772  0.14914256  0.26783376     0.36640
N881        N  0.26146130  0.22139388  0.42456011    -0.38180
N882        N  0.23971391  0.13654139  0.24228621    -0.38180
N883        N  0.25838987  0.28108286  0.34222252    -0.37620
N884        N  0.26106692  0.07735391  0.32191935    -0.37630
C885        C  0.95678869  0.41638843  0.80990394    -0.04290
C886        C  0.98209441  0.39683766  0.82579987    -0.01410
C887        C  0.99983639  0.41069268  0.85336149     0.03580
C888        C  0.99373104  0.44483364  0.86344838    -0.04290
C889        C  0.97049684  0.46502409  0.84517462    -0.01400
C890        C  0.95022397  0.45005119  0.82065927     0.03570
C891        C  0.98925738  0.36249053  0.81428387     0.38230
C892        C  0.96636829  0.50105671  0.85187661     0.38220
C893        C  0.92134322  0.46879445  0.80765493     0.36640
C894        C  0.02456986  0.39008860  0.87119836     0.36640
N895        N  0.89817025  0.48355043  0.79754436    -0.38180
N896        N  0.04436785  0.37375431  0.88548930    -0.38180
N897        N  0.96273552  0.53001455  0.85609026    -0.37620
N898        N  0.99495260  0.33504729  0.80506532    -0.37630
C899        C  0.93403329  0.54055170  0.14284987    -0.04290
C900        C  0.91088428  0.51604928  0.15428135    -0.01410
C901        C  0.88953908  0.52373349  0.18081393     0.03580
C902        C  0.89444298  0.55321490  0.20011792    -0.04290
C903        C  0.91960782  0.57624146  0.19123912    -0.01400
C904        C  0.93877904  0.57043858  0.16200597     0.03570
C905        C  0.90857118  0.48226011  0.13952161     0.38230
C906        C  0.92586642  0.60564779  0.21230390     0.38220
C907        C  0.96276205  0.59537233  0.15153473     0.36640
C908        C  0.86207846  0.50118452  0.18809330     0.36640
N909        N  0.98197136  0.61528638  0.14325479    -0.38180
N910        N  0.84025943  0.48325840  0.19377231    -0.38180
N911        N  0.93080579  0.62904925  0.22925481    -0.37620
N912        N  0.90510597  0.45490040  0.12930134    -0.37630
C913        C  0.99262289  0.42517140  0.13343724    -0.04290
C914        C  0.98571438  0.39201413  0.14536965    -0.01410
C915        C  0.00269629  0.37864515  0.17428995     0.03580
C916        C  0.02818399  0.39754548  0.18996994    -0.04290
C917        C  0.03562390  0.43007030  0.17718697    -0.01400
C918        C  0.01651457  0.44455714  0.15081883     0.03570
C919        C  0.96177211  0.37152268  0.12738094     0.38230
C920        C  0.06516195  0.44738073  0.18902126     0.38220
C921        C  0.02278830  0.47928581  0.14076152     0.36640
C922        C  0.99486923  0.34514802  0.18711099     0.36640
N923        N  0.02822526  0.50730000  0.13406185    -0.38180
N924        N  0.98861499  0.31836321  0.19733624    -0.38180
N925        N  0.08912156  0.46069037  0.19798839    -0.37620
N926        N  0.94263134  0.35522134  0.11293130    -0.37630
C927        C  0.16821110  0.60272666  0.04265623    -0.04290
C928        C  0.14624646  0.62730573  0.02795806    -0.01410
C929        C  0.11666525  0.61676165  0.01170502     0.03580
C930        C  0.11094456  0.58168984  0.00604675    -0.04290
C931        C  0.13477876  0.55745382  0.01730559    -0.01400
C932        C  0.16154719  0.56756308  0.03769062     0.03570
C933        C  0.15367898  0.66332455  0.02955066     0.38230
C934        C  0.13018832  0.52133820  0.01122532     0.38220
C935        C  0.18022227  0.54117049  0.05591267     0.36640
C936        C  0.09144262  0.64192642  0.00221543     0.36640
N937        N  0.19496338  0.52005456  0.07033259    -0.38180
N938        N  0.07123561  0.66199604  0.99483818    -0.38180
N939        N  0.12758084  0.49232505  0.00706487    -0.37620
N940        N  0.15947828  0.69212459  0.03064745    -0.37630
C941        C  0.79026729  0.39764941  0.05449431    -0.04290
C942        C  0.80575456  0.42608918  0.06860885    -0.01410
C943        C  0.83433782  0.43937954  0.05406250     0.03580
C944        C  0.85043543  0.42220286  0.02679647    -0.04290
C945        C  0.83437796  0.39368028  0.01213918    -0.01400
C946        C  0.80406736  0.38165560  0.02587470     0.03570
C947        C  0.79374868  0.44037172  0.10014888     0.38230
C948        C  0.84965889  0.37600304  0.98417873     0.38220
C949        C  0.78734328  0.35225258  0.01189095     0.36640
C950        C  0.84669880  0.47090617  0.06847099     0.36640
N951        N  0.77299641  0.32895694  0.00180938    -0.38180
N952        N  0.85496074  0.49590008  0.08134422    -0.38180
N953        N  0.86232777  0.36222298  0.96183670    -0.37620
N954        N  0.78507188  0.45157034  0.12560267    -0.37630
C955        C  0.98459995  0.18983189  0.39326218    -0.04290
C956        C  0.01824481  0.18552879  0.40344423    -0.01410
C957        C  0.02981312  0.15328365  0.41602856     0.03580
C958        C  0.00899905  0.12440271  0.41425988    -0.04290
C959        C  0.97778691  0.12866352  0.39779784    -0.01400
C960        C  0.96403608  0.16116013  0.39344115     0.03570
C961        C  0.04040453  0.21416855  0.40189467     0.38230
C962        C  0.95949259  0.10082843  0.38311356     0.38220
C963        C  0.92800469  0.16476963  0.39303213     0.36640
C964        C  0.06261632  0.15000506  0.43097245     0.36640
N965        N  0.89932635  0.16731985  0.39341948    -0.38180
N966        N  0.08872038  0.14714476  0.44319608    -0.38180
N967        N  0.94374809  0.08064595  0.36936998    -0.37620
N968        N  0.05820630  0.23698638  0.40032536    -0.37630
C969        C  0.72965211  0.15988768  0.25237865    -0.04290
C970        C  0.71699387  0.14857536  0.28356222    -0.01410
C971        C  0.69434987  0.12121686  0.28449668     0.03580
C972        C  0.68057027  0.10815758  0.25410270    -0.04290
C973        C  0.69295812  0.12047277  0.22311829    -0.01400
C974        C  0.71990349  0.14280625  0.22277593     0.03570
C975        C  0.72702138  0.16498789  0.31466972     0.38230
C976        C  0.67639398  0.11304940  0.19141082     0.38220
C977        C  0.74000494  0.14508658  0.19279171     0.36640
C978        C  0.68606901  0.10618149  0.31670832     0.36640
N979        N  0.75698588  0.14547617  0.16943122    -0.38180
N980        N  0.67961715  0.09408192  0.34241867    -0.38180
N981        N  0.66282635  0.10815048  0.16606143    -0.37620
N982        N  0.73504630  0.17805835  0.33951926    -0.37630
C983        C  0.75834150  0.27144265  0.19511649    -0.04290
C984        C  0.76659981  0.30608832  0.20191902    -0.01410
C985        C  0.76194154  0.33169696  0.17710170     0.03580
C986        C  0.74787327  0.32375578  0.14563727    -0.04290
C987        C  0.73828677  0.29020135  0.13883240    -0.01400
C988        C  0.74343964  0.26416859  0.16313987     0.03570
C989        C  0.77892134  0.31666948  0.23461468     0.38230
C990        C  0.72307958  0.28249301  0.10638794     0.38220
C991        C  0.73281272  0.23031000  0.15412638     0.36640
C992        C  0.77171061  0.36657121  0.18386213     0.36640
N993        N  0.72266262  0.20437554  0.14526577    -0.38180
N994        N  0.77956777  0.39433415  0.18914104    -0.38180
N995        N  0.71099557  0.27638935  0.08054590    -0.37620
N996        N  0.78920258  0.32690638  0.25990003    -0.37630
C997        C  0.83310583  0.22274325  0.28637769    -0.04290
C998        C  0.83353238  0.25133729  0.30752086    -0.01410
C999        C  0.86244340  0.25972583  0.32573125     0.03580
C1000       C  0.88895865  0.23533858  0.33033910    -0.04290
C1001       C  0.88680208  0.20452218  0.31071640    -0.01400
C1002       C  0.86008358  0.19959829  0.28760688     0.03570
C1003       C  0.80298076  0.27062732  0.31307775     0.38230
C1004       C  0.91072542  0.17667489  0.31380215     0.38220
C1005       C  0.85986732  0.17009977  0.26550741     0.36640
C1006       C  0.86425149  0.29465913  0.33731555     0.36640
N1007       N  0.85964502  0.14662110  0.24787211    -0.38180
N1008       N  0.86341284  0.32289742  0.34571814    -0.38180
N1009       N  0.92928390  0.15381814  0.31507392    -0.37620
N1010       N  0.77839560  0.28517521  0.31859229    -0.37630
C1011       C  0.01358690  0.60195157  0.87895890    -0.04290
C1012       C  0.04813395  0.60806935  0.87817472    -0.01410
C1013       C  0.06453886  0.61212262  0.84750727     0.03580
C1014       C  0.04621339  0.61591172  0.81715151    -0.04290
C1015       C  0.01103290  0.61498103  0.81829875    -0.01400
C1016       C  0.99473252  0.60773341  0.84915274     0.03570
C1017       C  0.06757171  0.60906866  0.90907012     0.38230
C1018       C  0.99172571  0.62096327  0.78778996     0.38220
C1019       C  0.95886043  0.60622680  0.85013859     0.36640
C1020       C  0.10068256  0.61003173  0.84727764     0.36640
N1021       N  0.93016336  0.60520926  0.85089168    -0.38180
N1022       N  0.12940598  0.60822141  0.84717900    -0.38180
N1023       N  0.97635822  0.62567651  0.76335909    -0.37620
N1024       N  0.08419345  0.61031713  0.93291408    -0.37630
C1025       C  0.13267086  0.00241854  0.57303516    -0.04290
C1026       C  0.14853342  0.01856201  0.60042293    -0.01410
C1027       C  0.17554730  0.00196097  0.61724711     0.03580
C1028       C  0.18541361  0.96862636  0.60760955    -0.04290
C1029       C  0.16993517  0.95289968  0.58006100    -0.01400
C1030       C  0.14460013  0.97003331  0.56227993     0.03570
C1031       C  0.13643577  0.05156692  0.61170707     0.38230
C1032       C  0.18003610  0.91850502  0.57015842     0.38220
C1033       C  0.12972161  0.95249801  0.53405579     0.36640
C1034       C  0.19286734  0.01877503  0.64456213     0.36640
N1035       N  0.11926187  0.93655916  0.51203010    -0.38180
N1036       N  0.20677088  0.03221077  0.66634912    -0.38180
N1037       N  0.18811542  0.89116684  0.56247124    -0.37620
N1038       N  0.12673964  0.07797064  0.62060675    -0.37630
C1039       C  0.18750665  0.72721691  0.78181610    -0.04290
C1040       C  0.19554975  0.69183677  0.78222759    -0.01410
C1041       C  0.17115260  0.66737673  0.77425026     0.03580
C1042       C  0.13850908  0.67779224  0.76532547    -0.04290
C1043       C  0.13024348  0.71290127  0.76517460    -0.01400
C1044       C  0.15422032  0.73733126  0.77405593     0.03570
C1045       C  0.22876846  0.67991216  0.79068448     0.38230
C1046       C  0.09690020  0.72393235  0.75548046     0.38220
C1047       C  0.14416715  0.77300335  0.77602836     0.36640
C1048       C  0.17944929  0.63123191  0.77603099     0.36640
N1049       N  0.13617061  0.80144813  0.77750936    -0.38180
N1050       N  0.18599934  0.60240758  0.77750101    -0.38180
N1051       N  0.07031611  0.73260190  0.74761586    -0.37620
N1052       N  0.25468666  0.66872925  0.79765194    -0.37630
C1053       C  0.23999298  0.83149907  0.73591210    -0.04290
C1054       C  0.25041806  0.82206378  0.70339509    -0.01410
C1055       C  0.24950805  0.84610427  0.67698541     0.03580
C1056       C  0.24037913  0.88056910  0.68333628    -0.04290
C1057       C  0.23064130  0.89010505  0.71626572    -0.01400
C1058       C  0.22945072  0.86539476  0.74211732     0.03570
C1059       C  0.26241358  0.78753020  0.69716189     0.38230
C1060       C  0.22245935  0.92541534  0.72393936     0.38220
C1061       C  0.21606261  0.87456670  0.77473707     0.36640
C1062       C  0.25678947  0.83467953  0.64307682     0.36640
N1063       N  0.20486715  0.88192492  0.80052132    -0.38180
N1064       N  0.26255583  0.82495179  0.61622569    -0.38180
N1065       N  0.21588733  0.95355018  0.73012535    -0.37620
N1066       N  0.27208680  0.76004001  0.69227678    -0.37630
C1067       C  0.28544888  0.78271022  0.84382129    -0.04290
C1068       C  0.29122395  0.81196597  0.86370311    -0.01410
C1069       C  0.31923425  0.81339539  0.88575557     0.03580
C1070       C  0.33863959  0.78344507  0.89331103    -0.04290
C1071       C  0.33105287  0.75352186  0.87395854    -0.01400
C1072       C  0.30750499  0.75484933  0.84735933     0.03570
C1073       C  0.26863813  0.84106943  0.86123026     0.38230
C1074       C  0.34648584  0.72038038  0.87993536     0.38220
C1075       C  0.30890326  0.72909523  0.82113193     0.36640
C1076       C  0.32914169  0.84664304  0.89778733     0.36640
N1077       N  0.31167158  0.70928929  0.79973558    -0.38180
N1078       N  0.33683321  0.87340714  0.90700637    -0.38180
N1079       N  0.35814218  0.69328981  0.88229422    -0.37620
N1080       N  0.25068346  0.86437736  0.85972341    -0.37630
C1081       C  0.57021780  0.87395676  0.04498387    -0.04290
C1082       C  0.55587642  0.84564534  0.02984906    -0.01410
C1083       C  0.55270133  0.81519935  0.04850261     0.03580
C1084       C  0.57109409  0.81031868  0.07956061    -0.04290
C1085       C  0.59446283  0.83618206  0.08780229    -0.01400
C1086       C  0.59128812  0.86890391  0.07296757     0.03570
C1087       C  0.54285668  0.84912715  0.99579052     0.38230
C1088       C  0.62291849  0.82939763  0.10960777     0.38220
C1089       C  0.61022738  0.89722727  0.08586541     0.36640
C1090       C  0.52743022  0.79210592  0.03667429     0.36640
N1091       N  0.62562534  0.91967587  0.09610987    -0.38180
N1092       N  0.50709722  0.77370972  0.02736347    -0.38180
N1093       N  0.64587352  0.82448142  0.12685405    -0.37620
N1094       N  0.53407359  0.85278888  0.96814281    -0.37630
C1095       C  0.39613452  0.82688327  0.00297139    -0.04290
C1096       C  0.37164811  0.84904175  0.01715298    -0.01410
C1097       C  0.38178889  0.87866007  0.03510402     0.03580
C1098       C  0.41568361  0.88302694  0.04388982    -0.04290
C1099       C  0.43733717  0.85552007  0.03849603    -0.01400
C1100       C  0.42962840  0.83220073  0.01305000     0.03570
C1101       C  0.33661155  0.84235855  0.01299614     0.38230
C1102       C  0.46859426  0.85353565  0.05666618     0.38220
C1103       C  0.45624185  0.82167211  0.99129605     0.36640
C1104       C  0.35773457  0.90483894  0.04418783     0.36640
N1105       N  0.47635835  0.81421909  0.97205223    -0.38180
N1106       N  0.33856552  0.92580684  0.05146874    -0.38180
N1107       N  0.49237077  0.85282708  0.07325063    -0.37620
N1108       N  0.30852905  0.83713642  0.00994540    -0.37630
C1109       C  0.62469494  0.00734848  0.19738491    -0.04290
C1110       C  0.64066918  0.01265309  0.16594016    -0.01410
C1111       C  0.62565565  0.00086770  0.13595516     0.03580
C1112       C  0.59492085  0.98413439  0.13713881    -0.04290
C1113       C  0.58669828  0.96848471  0.16778332    -0.01400
C1114       C  0.60163540  0.98007456  0.19813523     0.03570
C1115       C  0.67307916  0.02779739  0.16338782     0.38230
C1116       C  0.56377444  0.94039587  0.16789035     0.38220
C1117       C  0.59409388  0.96309202  0.22954230     0.36640
C1118       C  0.64226617  0.00491645  0.10389406     0.36640
N1119       N  0.58772558  0.94902611  0.25426777    -0.38180
N1120       N  0.65602215  0.00767591  0.07858416    -0.38180
N1121       N  0.54577033  0.91768624  0.16759188    -0.37620
N1122       N  0.69934540  0.03889492  0.16020250    -0.37630
C1123       C  0.42137345  0.94207284  0.21314870    -0.04290
C1124       C  0.45526728  0.94831644  0.20620626    -0.01410
C1125       C  0.46332781  0.97404825  0.18335011     0.03580
C1126       C  0.43893942  0.98726613  0.16123141    -0.04290
C1127       C  0.40528069  0.98323894  0.16914539    -0.01400
C1128       C  0.39686902  0.96316573  0.19731946     0.03570
C1129       C  0.48198104  0.92839881  0.22183076     0.38230
C1130       C  0.37958847  0.99968694  0.14883043     0.38220
C1131       C  0.36491049  0.96846460  0.21288582     0.36640
C1132       C  0.49600847  0.98892871  0.18348032     0.36640
N1133       N  0.34014000  0.97490673  0.22614546    -0.38180
N1134       N  0.52112831  0.00280596  0.18412497    -0.38180
N1135       N  0.35890229  0.01277431  0.13272389    -0.37620
N1136       N  0.50327349  0.91259170  0.23439527    -0.37630
C1137       C  0.39121472  0.21608279  0.02256744    -0.04290
C1138       C  0.37164590  0.18657346  0.01923013    -0.01410
C1139       C  0.38669863  0.15524880  0.00985568     0.03580
C1140       C  0.42070189  0.15391189  0.00124171    -0.04290
C1141       C  0.43683264  0.18468252  0.99475677    -0.01400
C1142       C  0.42130682  0.21594478  0.00359843     0.03570
C1143       C  0.33592599  0.18883416  0.02307173     0.38230
C1144       C  0.46972387  0.18430756  0.98013491     0.38220
C1145       C  0.43453573  0.24676506  0.98914850     0.36640
C1146       C  0.36741277  0.12431763  0.00951379     0.36640
N1147       N  0.44544126  0.27091777  0.97690715    -0.38180
N1148       N  0.35202250  0.09964227  0.00913333    -0.38180
N1149       N  0.49585554  0.18415182  0.96825232    -0.37620
N1150       N  0.30737230  0.19056431  0.02598425    -0.37630
C1151       C  0.57692475  0.14017140  0.96818742    -0.04290
C1152       C  0.57677709  0.17313732  0.98205807    -0.01410
C1153       C  0.58555171  0.20127127  0.96180647     0.03580
C1154       C  0.59138737  0.19677980  0.92672861    -0.04290
C1155       C  0.59353316  0.16304688  0.91384683    -0.01400
C1156       C  0.58886549  0.13506962  0.93539245     0.03570
C1157       C  0.56622963  0.17821560  0.01654183     0.38230
C1158       C  0.59772687  0.15670371  0.87811127     0.38220
C1159       C  0.59623193  0.10054288  0.92431645     0.36640
C1160       C  0.58836503  0.23464375  0.97719115     0.36640
N1161       N  0.60280107  0.07270838  0.91699175    -0.38180
N1162       N  0.59061280  0.26125860  0.98950249    -0.38180
N1163       N  0.60096066  0.15178794  0.84955872    -0.37620
N1164       N  0.55773443  0.18224197  0.04405494    -0.37630
C1165       C  0.06073117  0.20271318  0.57475937    -0.04290
C1166       C  0.04567186  0.18631513  0.60255803    -0.01410
C1167       C  0.02763680  0.15592095  0.59725359     0.03580
C1168       C  0.02083353  0.14516246  0.56410427    -0.04290
C1169       C  0.03020509  0.16573186  0.53713623    -0.01400
C1170       C  0.05429707  0.19027264  0.54196747     0.03570
C1171       C  0.04854148  0.20017525  0.63617872     0.38230
C1172       C  0.01289949  0.16299035  0.50522136     0.38220
C1173       C  0.07535624  0.19906471  0.51391086     0.36640
C1174       C  0.01582059  0.13612493  0.62539390     0.36640
N1175       N  0.09308509  0.20569041  0.49214848    -0.38180
N1176       N  0.00615820  0.12036948  0.64785402    -0.38180
N1177       N  0.99675121  0.16175286  0.48103136    -0.37620
N1178       N  0.05010813  0.21086426  0.66329300    -0.37630
C1179       C  0.42502631  0.05348218  0.88452668    -0.04290
C1180       C  0.39679399  0.04189882  0.86667907    -0.01410
C1181       C  0.38792204  0.05675573  0.83514958     0.03580
C1182       C  0.40741521  0.08284734  0.82135656    -0.04290
C1183       C  0.43574613  0.09401922  0.83865131    -0.01400
C1184       C  0.44458588  0.07971208  0.86986203     0.03570
C1185       C  0.37598622  0.01609756  0.88136073     0.38230
C1186       C  0.45571197  0.12109825  0.82440270     0.38220
C1187       C  0.47373637  0.09347882  0.88660508     0.36640
C1188       C  0.35867574  0.04555204  0.81699608     0.36640
N1189       N  0.49673784  0.10568724  0.89913780    -0.38180
N1190       N  0.33527644  0.03672353  0.80248253    -0.38180
N1191       N  0.47156380  0.14253096  0.81300028    -0.37620
N1192       N  0.35932612  0.99554378  0.89313080    -0.37630
C1193       C  0.17733042  0.43340290  0.91149004    -0.04290
C1194       C  0.17043199  0.41684849  0.94221396    -0.01410
C1195       C  0.13883699  0.42082860  0.95715598     0.03580
C1196       C  0.11362765  0.44019193  0.94047618    -0.04290
C1197       C  0.11983722  0.45247738  0.90720337    -0.01400
C1198       C  0.15182333  0.45044459  0.89368792     0.03570
C1199       C  0.19569329  0.39539958  0.95816399     0.38230
C1200       C  0.09392326  0.46792752  0.88620009     0.38220
C1201       C  0.15884412  0.46698444  0.86168623     0.36640
C1202       C  0.13299398  0.40600782  0.99001601     0.36640
N1203       N  0.16451900  0.48026658  0.83634816    -0.38180
N1204       N  0.12846043  0.39406021  0.01624211    -0.38180
N1205       N  0.07477389  0.48068157  0.86803526    -0.37620
N1206       N  0.21549267  0.37769972  0.97074954    -0.37630
C1207       C  0.20890392  0.27732070  0.67214980    -0.04290
C1208       C  0.17566715  0.27394878  0.68260776    -0.01410
C1209       C  0.14994848  0.27026470  0.65856343     0.03580
C1210       C  0.15737224  0.26730422  0.62392587    -0.04290
C1211       C  0.19082510  0.26919836  0.61356201    -0.01400
C1212       C  0.21633632  0.27514144  0.63745567     0.03570
C1213       C  0.16798053  0.27310238  0.71827635     0.38230
C1214       C  0.19918055  0.26410417  0.57841773     0.38220
C1215       C  0.25018472  0.27959140  0.62624895     0.36640
C1216       C  0.11571376  0.27117427  0.66953182     0.36640
N1217       N  0.27716525  0.28328752  0.61730790    -0.38180
N1218       N  0.08850501  0.27256108  0.67858586    -0.38180
N1219       N  0.20594351  0.25976106  0.55044641    -0.37620
N1220       N  0.16200097  0.27216328  0.74673805    -0.37630
C1221       C  0.30693926  0.22838460  0.73539318    -0.04290
C1222       C  0.34147581  0.23421791  0.73649530    -0.01410
C1223       C  0.36375377  0.20750803  0.74510523     0.03580
C1224       C  0.35180697  0.17443033  0.75140388    -0.04290
C1225       C  0.31730438  0.16858065  0.75053346    -0.01400
C1226       C  0.29489417  0.19560501  0.74309087     0.03570
C1227       C  0.35421538  0.26757699  0.72809929     0.38230
C1228       C  0.30487298  0.13454931  0.75633242     0.38220
C1229       C  0.25940366  0.18979224  0.74410199     0.36640
C1230       C  0.39906242  0.21413498  0.74781445     0.36640
N1231       N  0.23109065  0.18524522  0.74489972    -0.38180
N1232       N  0.42720895  0.21934803  0.75005097    -0.38180
N1233       N  0.29498992  0.10739462  0.76093553    -0.37620
N1234       N  0.36435070  0.29418568  0.72143647    -0.37630
C1235       C  0.25594015  0.33708815  0.77368515    -0.04290
C1236       C  0.24811283  0.32678309  0.80675557    -0.01410
C1237       C  0.24833279  0.35052520  0.83326649     0.03580
C1238       C  0.25427440  0.38541689  0.82673788    -0.04290
C1239       C  0.26178743  0.39582035  0.79352747    -0.01400
C1240       C  0.26310698  0.37158799  0.76717748     0.03570
C1241       C  0.23884845  0.29175233  0.81337213     0.38230
C1242       C  0.26705833  0.43150848  0.78608957     0.38220
C1243       C  0.27207184  0.38203665  0.73341705     0.36640
C1244       C  0.24243675  0.33888248  0.86745110     0.36640
N1245       N  0.27926965  0.39027346  0.70645944    -0.38180
N1246       N  0.23763901  0.32966164  0.89468131    -0.38180
N1247       N  0.27123937  0.45992533  0.77974870    -0.37620
N1248       N  0.23134104  0.26385531  0.81847204    -0.37630
C1249       C  0.78135141  0.56936056  0.96138271    -0.04290
C1250       C  0.79151944  0.58653452  0.99080283    -0.01410
C1251       C  0.81997296  0.57482524  0.00898380     0.03580
C1252       C  0.83763942  0.54528081  0.99839940    -0.04290
C1253       C  0.82558355  0.52682817  0.97041704    -0.01400
C1254       C  0.79837736  0.53937747  0.95142977     0.03570
C1255       C  0.77323563  0.61656916  0.00174559     0.38230
C1256       C  0.84224751  0.49608654  0.95901800     0.38220
C1257       C  0.78884081  0.52221523  0.92038175     0.36640
C1258       C  0.83168293  0.59353857  0.03812237     0.36640
N1259       N  0.78131682  0.50868403  0.89561457    -0.38180
N1260       N  0.84108428  0.60838140  0.06143473    -0.38180
N1261       N  0.85389106  0.47140207  0.94814031    -0.37620
N1262       N  0.75857502  0.64055433  0.01044968    -0.37630
C1263       C  0.91707077  0.81182782  0.61396581    -0.04290
C1264       C  0.89805558  0.83986132  0.60207204    -0.01410
C1265       C  0.91352438  0.87022643  0.59238562     0.03580
C1266       C  0.94881536  0.87300136  0.59277380    -0.04290
C1267       C  0.96776365  0.84563234  0.60694353    -0.01400
C1268       C  0.95195517  0.81504966  0.61709934     0.03570
C1269       C  0.86223814  0.83690035  0.59790544     0.38230
C1270       C  0.00340998  0.84843776  0.61073555     0.38220
C1271       C  0.97158061  0.78669827  0.63041413     0.36640
C1272       C  0.89212691  0.89821040  0.58123738     0.36640
N1273       N  0.98721995  0.76398629  0.64097081    -0.38180
N1274       N  0.87354515  0.91913315  0.57217629    -0.38180
N1275       N  0.03187937  0.85048900  0.61426504    -0.37620
N1276       N  0.83377862  0.83451434  0.59456040    -0.37630
C1277       C  0.71932207  0.68856212  0.81721661    -0.04290
C1278       C  0.72233351  0.65452305  0.80548292    -0.01410
C1279       C  0.72705922  0.62701158  0.82848874     0.03580
C1280       C  0.72738269  0.63287125  0.86374041    -0.04290
C1281       C  0.72390167  0.66692758  0.87536613    -0.01400
C1282       C  0.72112309  0.69448949  0.85232894     0.03570
C1283       C  0.72078822  0.64775634  0.76956952     0.38230
C1284       C  0.72244423  0.67382654  0.91126102     0.38220
C1285       C  0.72252367  0.72916119  0.86486334     0.36640
C1286       C  0.73284361  0.59282131  0.81570745     0.36640
N1287       N  0.72440528  0.75671742  0.87501908    -0.38180
N1288       N  0.73755298  0.56554303  0.80551921    -0.38180
N1289       N  0.72119110  0.67932225  0.93988040    -0.37620
N1290       N  0.71962977  0.64239826  0.74090207    -0.37630
C1291       C  0.82598099  0.75414136  0.67715306    -0.04290
C1292       C  0.79242110  0.74976197  0.66720345    -0.01410
C1293       C  0.76705754  0.74870092  0.69156288     0.03580
C1294       C  0.77435318  0.75447656  0.72599181    -0.04290
C1295       C  0.80766137  0.75968922  0.73597346    -0.01400
C1296       C  0.83338701  0.75899113  0.71183246     0.03570
C1297       C  0.78372092  0.74682714  0.63174288     0.38230
C1298       C  0.81550672  0.76520560  0.77127996     0.38220
C1299       C  0.86763285  0.76196071  0.72298141     0.36640
C1300       C  0.73374165  0.73929940  0.68138514     0.36640
N1301       N  0.89497575  0.76428132  0.73184988    -0.38180
N1302       N  0.70737075  0.73110312  0.67324975    -0.38180
N1303       N  0.82170626  0.76956398  0.79948068    -0.37620
N1304       N  0.77680101  0.74453824  0.60345473    -0.37630
C1305       C  0.55471586  0.95980051  0.81479595    -0.04290
C1306       C  0.52851561  0.94952637  0.83565774    -0.01410
C1307       C  0.51731205  0.97081557  0.86194997     0.03580
C1308       C  0.53282926  0.00216277  0.86883257    -0.04290
C1309       C  0.55665201  0.01397443  0.84585027    -0.01400
C1310       C  0.56767350  0.99281964  0.81896386     0.03570
C1311       C  0.51331371  0.91658465  0.83037207     0.38230
C1312       C  0.56810516  0.04857984  0.84837201     0.38220
C1313       C  0.59259392  0.00474796  0.79585582     0.36640
C1314       C  0.48994304  0.95996143  0.88249123     0.36640
N1315       N  0.61251041  0.01418786  0.77735058    -0.38180
N1316       N  0.46781297  0.95087046  0.89828490    -0.38180
N1317       N  0.57671055  0.07657171  0.84885565    -0.37620
N1318       N  0.50129082  0.89030633  0.82612285    -0.37630
C1319       C  0.61499564  0.85434153  0.77008986    -0.04290
C1320       C  0.63614575  0.84818677  0.74253249    -0.01410
C1321       C  0.65798992  0.81951106  0.74205291     0.03580
C1322       C  0.66476723  0.79995023  0.77185475    -0.04290
C1323       C  0.64502158  0.80807847  0.80068818    -0.01400
C1324       C  0.61925819  0.83352169  0.79900245     0.03570
C1325       C  0.63754384  0.87307809  0.71545721     0.38230
C1326       C  0.65101353  0.79142449  0.83283062     0.38220
C1327       C  0.59694312  0.83810634  0.82718753     0.36640
C1328       C  0.67164235  0.80979687  0.70971745     0.36640
N1329       N  0.57907427  0.84168136  0.84962781    -0.38180
N1330       N  0.68202399  0.80296446  0.68344704    -0.38180
N1331       N  0.65474339  0.77852636  0.85889053    -0.37620
N1332       N  0.63946409  0.89339260  0.69438183    -0.37630
C1333       C  0.43770572  0.31203196  0.08826587    -0.04290
C1334       C  0.43434984  0.34291574  0.10644915    -0.01410
C1335       C  0.45844848  0.36832454  0.10303152     0.03580
C1336       C  0.48126034  0.36690725  0.07598307    -0.04290
C1337       C  0.48730059  0.33481711  0.06092298    -0.01400
C1338       C  0.46730669  0.30685459  0.06947320     0.02550
C1339       C  0.40582806  0.35018503  0.12738144     0.38230
C1340       C  0.51386373  0.33012513  0.03688496     0.38220
C1341       C  0.47762183  0.27271935  0.05950176     0.36640
C1342       C  0.46045749  0.39493177  0.12832661     0.36640
N1343       N  0.48621773  0.24549335  0.05197274    -0.38180
N1344       N  0.46241490  0.41564333  0.14897775    -0.38180
N1345       N  0.53499811  0.32624963  0.01763089    -0.37620
N1346       N  0.38348067  0.35685366  0.14441059    -0.37630
C1347       C  0.55582648  0.31549797  0.89170302    -0.04290
C1348       C  0.57353144  0.34601844  0.89634236    -0.01410
C1349       C  0.55652483  0.37643568  0.90402198     0.03580
C1350       C  0.52271676  0.37627736  0.91279760    -0.04290
C1351       C  0.50450577  0.34627396  0.90761473    -0.01400
C1352       C  0.52080185  0.31624257  0.89586308     0.03570
C1353       C  0.60965800  0.34607758  0.89613216     0.38230
C1354       C  0.46944934  0.34599201  0.91547146     0.38220
C1355       C  0.50159252  0.28615660  0.88858513     0.36640
C1356       C  0.57400529  0.40820688  0.90186633     0.36640
N1357       N  0.48620642  0.26216311  0.88273690    -0.38180
N1358       N  0.58871264  0.43294595  0.89833730    -0.38180
N1359       N  0.44143979  0.34586290  0.92173742    -0.37620
N1360       N  0.63840948  0.34616243  0.89625678    -0.37630
C1361       C  0.67319607  0.41353811  0.09455675    -0.04290
C1362       C  0.67046029  0.44963444  0.09574892    -0.01410
C1363       C  0.63922157  0.46618733  0.09089066     0.03580
C1364       C  0.61039200  0.44675470  0.08597120    -0.04290
C1365       C  0.61273404  0.41088613  0.08955361    -0.01400
C1366       C  0.64389355  0.39431600  0.09201731     0.03570
C1367       C  0.69961228  0.47002540  0.10167052     0.38230
C1368       C  0.58293668  0.39064868  0.09057894     0.38220
C1369       C  0.64561324  0.35735656  0.08954858     0.36640
C1370       C  0.63717769  0.50310368  0.08979880     0.36640
N1371       N  0.64677612  0.32792723  0.08739897    -0.38180
N1372       N  0.63611958  0.53261021  0.08927893    -0.38180
N1373       N  0.55974428  0.37374252  0.09218085    -0.37620
N1374       N  0.72234639  0.48709690  0.10640100    -0.37630
C1375       C  0.61887125  0.48962945  0.93510175    -0.04290
C1376       C  0.64975463  0.48203397  0.95022077    -0.01410
C1377       C  0.67833568  0.49923193  0.93894532     0.03580
C1378       C  0.67472525  0.52923940  0.91826558    -0.04290
C1379       C  0.64361334  0.53429034  0.90157774    -0.01400
C1380       C  0.61840054  0.51054422  0.90602146     0.03570
C1381       C  0.65195862  0.45805875  0.97803656     0.38230
C1382       C  0.63467251  0.56550256  0.88375222     0.38220
C1383       C  0.58977532  0.51087142  0.88340404     0.36640
C1384       C  0.71071852  0.48552838  0.94861616     0.36640
N1385       N  0.56741626  0.51083076  0.86485202    -0.38180
N1386       N  0.73626756  0.47403610  0.95662667    -0.38180
N1387       N  0.62685699  0.59033626  0.86972421    -0.37620
N1388       N  0.65373074  0.43902667  0.00035881    -0.37630
C1389       C  0.49046255  0.63815863  0.07305259    -0.04290
C1390       C  0.52365118  0.64532794  0.06450935    -0.01410
C1391       C  0.54007412  0.67276549  0.07923681     0.03580
C1392       C  0.52293141  0.69471081  0.10122239    -0.04290
C1393       C  0.48908626  0.68897907  0.10844450    -0.01400
C1394       C  0.47291381  0.66032954  0.09461406     0.03570
C1395       C  0.54181381  0.62335722  0.04163442     0.38230
C1396       C  0.47116536  0.71228799  0.13028205     0.38220
C1397       C  0.43883979  0.65309886  0.10316383     0.36640
C1398       C  0.57519772  0.67757067  0.07283445     0.36640
N1399       N  0.41159589  0.64730388  0.10988787    -0.38180
N1400       N  0.60316348  0.68138749  0.06784926    -0.38180
N1401       N  0.45685757  0.73091779  0.14770956    -0.37620
N1402       N  0.55698781  0.60600808  0.02380472    -0.37630
C1403       C  0.42810376  0.71639635  0.94762420    -0.04290
C1404       C  0.40672533  0.68842409  0.94798476    -0.01410
C1405       C  0.41959569  0.65542800  0.94387627     0.03580
C1406       C  0.45383904  0.64855399  0.94974467    -0.04290
C1407       C  0.47567187  0.67644194  0.95134206    -0.01400
C1408       C  0.46289685  0.71026151  0.94771287     0.03570
C1409       C  0.37160927  0.69319551  0.95512381     0.38230
C1410       C  0.51082119  0.67077747  0.95780253     0.38220
C1411       C  0.48573695  0.73798507  0.94364219     0.36640
C1412       C  0.39725679  0.62869846  0.93344928     0.36640
N1413       N  0.50530420  0.75881470  0.93946728    -0.38180
N1414       N  0.37919559  0.60769365  0.92492007    -0.38180
N1415       N  0.53889416  0.66652601  0.96317391    -0.37620
N1416       N  0.34373843  0.69694587  0.96124071    -0.37630
C1417       C  0.28406123  0.57603743  0.07765129    -0.04290
C1418       C  0.30501378  0.58972930  0.05328737    -0.01410
C1419       C  0.33556238  0.57379853  0.04646908     0.03580
C1420       C  0.34624783  0.54386638  0.06454960    -0.04290
C1421       C  0.32442391  0.52950655  0.08820845    -0.01400
C1422       C  0.29340149  0.54570693  0.09479824     0.03570
C1423       C  0.29542072  0.62108167  0.03560965     0.38230
C1424       C  0.33411976  0.49895295  0.10660951     0.38220
C1425       C  0.27100788  0.53136217  0.11921134     0.36640
C1426       C  0.35583727  0.58953304  0.02090794     0.36640
N1427       N  0.25296177  0.52008245  0.13866172    -0.38180
N1428       N  0.37164971  0.60331194  0.00108149    -0.38180
N1429       N  0.34165102  0.47449844  0.12138348    -0.37620
N1430       N  0.28785192  0.64594706  0.02152060    -0.37630
C1431       C  0.34761823  0.51135597  0.93872615    -0.04290
C1432       C  0.33743896  0.51818467  0.90502063    -0.01410
C1433       C  0.31005940  0.50106974  0.89058311     0.03580
C1434       C  0.29354873  0.47573320  0.90907740    -0.04290
C1435       C  0.30307350  0.46961189  0.94292049    -0.01400
C1436       C  0.32948382  0.48757500  0.95773961     0.03570
C1437       C  0.35662735  0.54091164  0.88422125     0.38230
C1438       C  0.28763309  0.44253616  0.96196655     0.38220
C1439       C  0.34027879  0.47748680  0.99124315     0.36640
C1440       C  0.29920278  0.50930250  0.85653554     0.36640
N1441       N  0.34730148  0.46709538  0.01767656    -0.38180
N1442       N  0.29060164  0.51625929  0.82942654    -0.38180
N1443       N  0.27580637  0.42096151  0.97748068    -0.37620
N1444       N  0.37194277  0.55857952  0.86713723    -0.37630
C1445       C  0.06164981  0.46229462  0.36775174    -0.04290
C1446       C  0.07519229  0.42893125  0.36846705    -0.01410
C1447       C  0.07527929  0.40844847  0.33931920     0.03580
C1448       C  0.06687633  0.42269871  0.30735181    -0.04290
C1449       C  0.05733012  0.45800230  0.30616219    -0.01400
C1450       C  0.05376868  0.47718591  0.33631967     0.03570
C1451       C  0.08880370  0.41538824  0.39973555     0.38230
C1452       C  0.04955353  0.47495699  0.27452280     0.38220
C1453       C  0.03960619  0.51145431  0.33525893     0.36640
C1454       C  0.08097382  0.37197852  0.34337763     0.36640
N1455       N  0.02809749  0.53869147  0.33439942    -0.38180
N1456       N  0.08534255  0.34292096  0.34686438    -0.38180
N1457       N  0.04238358  0.48950942  0.25003836    -0.37620
N1458       N  0.10078298  0.40457259  0.42418009    -0.37630
C1459       C  0.90679538  0.47637653  0.37309772    -0.04290
C1460       C  0.92564957  0.47907433  0.34385330    -0.01410
C1461       C  0.91387116  0.49985120  0.31733180     0.03580
C1462       C  0.87951795  0.50987787  0.31563504    -0.04290
C1463       C  0.85835787  0.49791128  0.34134841    -0.01400
C1464       C  0.87237337  0.48399965  0.37121465     0.03570
C1465       C  0.95814391  0.46275358  0.34224254     0.38230
C1466       C  0.82252012  0.49996409  0.33762472     0.38220
C1467       C  0.85175209  0.47916325  0.40056362     0.36640
C1468       C  0.93857370  0.51356554  0.29480343     0.36640
N1469       N  0.83531641  0.47540089  0.42401094    -0.38180
N1470       N  0.95853113  0.52435328  0.27707400    -0.38180
N1471       N  0.79389101  0.50139123  0.33476178    -0.37620
N1472       N  0.98347503  0.44855079  0.34073479    -0.37630
C1473       C  0.06399166  0.55289514  0.63557415    -0.04290
C1474       C  0.07185024  0.53357928  0.66488282    -0.01410
C1475       C  0.08038455  0.55022613  0.69561010     0.03580
C1476       C  0.08055059  0.58635759  0.69757206    -0.04290
C1477       C  0.07416279  0.60546454  0.66797715    -0.01400
C1478       C  0.06706989  0.58900522  0.63724638     0.03570
C1479       C  0.06965729  0.49674786  0.66400324     0.38230
C1480       C  0.07260009  0.64254307  0.66941777     0.38220
C1481       C  0.06187848  0.61018410  0.60756693     0.36640
C1482       C  0.08878102  0.53015880  0.72529661     0.36640
N1483       N  0.05748726  0.62825010  0.58483221    -0.38180
N1484       N  0.09555958  0.51414698  0.74900270    -0.38180
N1485       N  0.07122091  0.67203162  0.67057496    -0.37620
N1486       N  0.06796215  0.46731536  0.66329437    -0.37630
C1487       C  0.92758886  0.49285081  0.63764948    -0.04290
C1488       C  0.94335228  0.50207005  0.66817103    -0.01410
C1489       C  0.93966980  0.48143957  0.69736129     0.03580
C1490       C  0.92495100  0.44849537  0.69475547    -0.04290
C1491       C  0.91170377  0.43898761  0.66321427    -0.01400
C1492       C  0.90754630  0.46335439  0.63783809     0.03570
C1493       C  0.96182789  0.53349376  0.67022229     0.38230
C1494       C  0.90437981  0.40367502  0.65532379     0.38220
C1495       C  0.88075377  0.45817909  0.61375248     0.36640
C1496       C  0.95102573  0.49499648  0.72933564     0.36640
N1497       N  0.85849158  0.45369621  0.59573455    -0.38180
N1498       N  0.96076647  0.50682751  0.75417201    -0.38180
N1499       N  0.89878072  0.37555185  0.64887449    -0.37620
N1500       N  0.97659712  0.55852796  0.67195946    -0.37630
C1501       C  0.07258009  0.37076317  0.48759579    -0.04290
C1502       C  0.10523860  0.36881190  0.50068480    -0.01410
C1503       C  0.11729719  0.33795187  0.51460806     0.03580
C1504       C  0.09511115  0.31054744  0.51925713    -0.04290
C1505       C  0.06763209  0.30978635  0.49602278    -0.01400
C1506       C  0.05615473  0.34027821  0.48065017     0.03570
C1507       C  0.12618266  0.39859034  0.50007668     0.38230
C1508       C  0.05233651  0.27849066  0.48506917     0.38220
C1509       C  0.02736944  0.34029851  0.45832219     0.36640
C1510       C  0.15278249  0.33375795  0.51997241     0.36640
N1511       N  0.00484612  0.34015627  0.43997939    -0.38180
N1512       N  0.18124088  0.33099356  0.52376747    -0.38180
N1513       N  0.03866144  0.25465266  0.47537194    -0.37620
N1514       N  0.14299059  0.42224712  0.49945377    -0.37630
C1515       C  0.92690989  0.35893117  0.47137196    -0.04290
C1516       C  0.91584231  0.35784912  0.43763317    -0.01410
C1517       C  0.92285486  0.32929243  0.41780775     0.03580
C1518       C  0.93120377  0.29778150  0.43311307    -0.04290
C1519       C  0.93722410  0.29703555  0.46848067    -0.01400
C1520       C  0.93714140  0.32805958  0.48711751     0.03570
C1521       C  0.89970469  0.38730630  0.42232828     0.38230
C1522       C  0.94532882  0.26508988  0.48526846     0.38220
C1523       C  0.94957859  0.32861199  0.52148194     0.36640
C1524       C  0.92791061  0.33434159  0.38195750     0.36640
N1525       N  0.95971744  0.32907578  0.54887954    -0.38180
N1526       N  0.93332678  0.33879207  0.35369449    -0.38180
N1527       N  0.95195227  0.23957108  0.49864560    -0.37620
N1528       N  0.88582952  0.41007771  0.40978751    -0.37630
C1529       C  0.90031925  0.63059079  0.54655954    -0.04290
C1530       C  0.89421215  0.62884871  0.58162698    -0.01410
C1531       C  0.88921558  0.65869378  0.60069449     0.03580
C1532       C  0.88602670  0.69077544  0.58453549    -0.04290
C1533       C  0.88655328  0.69183501  0.54870671    -0.01400
C1534       C  0.89392985  0.66185822  0.52980517     0.03570
C1535       C  0.89297611  0.59600123  0.59842027     0.38230
C1536       C  0.87954654  0.72369785  0.53125661     0.38220
C1537       C  0.89448743  0.66317962  0.49334834     0.36640
C1538       C  0.88972823  0.65623603  0.63725628     0.36640
N1539       N  0.89435321  0.66430629  0.46418463    -0.38180
N1540       N  0.89026509  0.65419875  0.66637351    -0.38180
N1541       N  0.87392284  0.74914897  0.51733539    -0.37620
N1542       N  0.89103157  0.57022598  0.61242175    -0.37630
C1543       C  0.05158818  0.64131783  0.50147254    -0.04290
C1544       C  0.08568305  0.64947645  0.50297734    -0.01410
C1545       C  0.09841774  0.67484639  0.48166457     0.03580
C1546       C  0.07773616  0.69032271  0.45692759    -0.04290
C1547       C  0.04348437  0.68256605  0.45595091    -0.01400
C1548       C  0.03032756  0.65944183  0.47917429     0.03570
C1549       C  0.10799199  0.63049053  0.52532127     0.38230
C1550       C  0.02165618  0.69827437  0.43073162     0.38220
C1551       C  0.99523235  0.65188620  0.47788983     0.36640
C1552       C  0.13241193  0.68565349  0.48608044     0.36640
N1553       N  0.96730065  0.64563216  0.47676471    -0.38180
N1554       N  0.15943408  0.69430527  0.49050889    -0.38180
N1555       N  0.00425887  0.71091494  0.41076004    -0.37620
N1556       N  0.12586732  0.61522891  0.54296242    -0.37630
C1557       C  0.46586353  0.07985386  0.63964321    -0.04290
C1558       C  0.43678577  0.06380485  0.65188806    -0.01410
C1559       C  0.42320237  0.07308145  0.68288096     0.03580
C1560       C  0.43771109  0.09898201  0.70192826    -0.04290
C1561       C  0.46676536  0.11492092  0.69067008    -0.01400
C1562       C  0.48114757  0.10509591  0.65966875     0.03570
C1563       C  0.41941407  0.03815854  0.63270393     0.38230
C1564       C  0.48128586  0.14184042  0.71069358     0.38220
C1565       C  0.51035489  0.12231461  0.64770270     0.36640
C1566       C  0.39308449  0.05689035  0.69466143     0.36640
N1567       N  0.53365699  0.13612296  0.63815595    -0.38180
N1568       N  0.36917968  0.04410312  0.70409039    -0.38180
N1569       N  0.49277229  0.16337371  0.72671133    -0.37620
N1570       N  0.40436885  0.01791303  0.61830998    -0.37630
C1571       C  0.52254422  0.91508322  0.70238298    -0.04290
C1572       C  0.53009722  0.89958569  0.67091165    -0.01410
C1573       C  0.50896142  0.90497456  0.64279931     0.03580
C1574       C  0.48566580  0.93240785  0.64232991    -0.04290
C1575       C  0.47490612  0.94444079  0.67393625    -0.01400
C1576       C  0.49186483  0.93391340  0.70395251     0.03570
C1577       C  0.55953956  0.87866694  0.66564430     0.38230
C1578       C  0.44392841  0.96337586  0.67634434     0.38220
C1579       C  0.47634458  0.94062287  0.73620995     0.36640
C1580       C  0.50830252  0.87925361  0.61657384     0.36640
N1581       N  0.46381462  0.94592914  0.76185025    -0.38180
N1582       N  0.50684169  0.85769149  0.59675810    -0.38180
N1583       N  0.41860646  0.97721232  0.67975396    -0.37620
N1584       N  0.58237494  0.86140074  0.65994194    -0.37630
C1585       C  0.36344459  0.07481780  0.50029855    -0.04290
C1586       C  0.34572980  0.05417023  0.47741487    -0.01410
C1587       C  0.31890784  0.06779683  0.45861612     0.03580
C1588       C  0.30623971  0.10073608  0.46556128    -0.04290
C1589       C  0.32231286  0.12087281  0.49015401    -0.01400
C1590       C  0.35151431  0.10827947  0.50674470     0.03570
C1591       C  0.35571770  0.01902135  0.47163289     0.38230
C1592       C  0.30963566  0.15483649  0.49730574     0.38220
C1593       C  0.36982193  0.12986735  0.52969385     0.36640
C1594       C  0.30641336  0.04905259  0.42968797     0.36640
N1595       N  0.38455041  0.14702074  0.54803559    -0.38180
N1596       N  0.29687426  0.03449709  0.40624889    -0.38180
N1597       N  0.29954175  0.18200152  0.50301951    -0.37620
N1598       N  0.36217529  0.99071914  0.46626048    -0.37630
C1599       C  0.30170378  0.93774023  0.58982489    -0.04290
C1600       C  0.31607223  0.96986493  0.59278958    -0.01410
C1601       C  0.34063411  0.97941456  0.57034982     0.03580
C1602       C  0.35668679  0.95457732  0.54968457    -0.04290
C1603       C  0.34202926  0.92223186  0.54632546    -0.01400
C1604       C  0.31343311  0.91451463  0.56526451     0.03570
C1605       C  0.30514788  0.99360115  0.61886630     0.38230
C1606       C  0.35600949  0.89704584  0.52365594     0.38220
C1607       C  0.29553806  0.88347897  0.55864299     0.36640
C1608       C  0.34751278  0.01551331  0.56849767     0.36640
N1609       N  0.28107940  0.85895507  0.55254145    -0.38180
N1610       N  0.35001676  0.04484552  0.56954299    -0.38180
N1611       N  0.36696696  0.87686441  0.50545619    -0.37620
N1612       N  0.29654192  0.01242039  0.63958716    -0.37630
C1613       C  0.54493223  0.04657910  0.36575438    -0.04290
C1614       C  0.56625379  0.02087284  0.35202628    -0.01410
C1615       C  0.58437062  0.02705505  0.32268487     0.03580
C1616       C  0.57883774  0.05718372  0.30390326    -0.04290
C1617       C  0.55569922  0.08182763  0.31571837    -0.01400
C1618       C  0.53908815  0.07677681  0.34679849     0.03570
C1619       C  0.57064663  0.98761414  0.36787566     0.38230
C1620       C  0.54976902  0.11272177  0.29635514     0.38220
C1621       C  0.51724902  0.10322952  0.35981167     0.36640
C1622       C  0.61103038  0.00338063  0.31353238     0.36640
N1623       N  0.49978856  0.12436396  0.37021992    -0.38180
N1624       N  0.63255463  0.98479387  0.30672177    -0.38180
N1625       N  0.54512255  0.13739683  0.28083184    -0.37620
N1626       N  0.57551345  0.96075735  0.37924734    -0.37630
C1627       C  0.48497069  0.92938518  0.37998316    -0.04290
C1628       C  0.45971278  0.95114807  0.36695453    -0.01410
C1629       C  0.43599407  0.93892738  0.34401862     0.03580
C1630       C  0.43962206  0.90606886  0.33008159    -0.04290
C1631       C  0.46602883  0.88460947  0.34142448    -0.01400
C1632       C  0.48778818  0.89577094  0.36732619     0.03570
C1633       C  0.45719651  0.98628902  0.37731981     0.38230
C1634       C  0.47139991  0.85158074  0.32593831     0.38220
C1635       C  0.51337015  0.87293876  0.38073127     0.36640
C1636       C  0.40791813  0.96062717  0.33398846     0.36640
N1637       N  0.53380740  0.85476253  0.39149386    -0.38180
N1638       N  0.38556875  0.97781032  0.32592212    -0.38180
N1639       N  0.47611162  0.82524818  0.31359781    -0.37620
N1640       N  0.45385469  0.01472516  0.38404998    -0.37630
C1641       C  0.63878639  0.04739989  0.51922849    -0.04290
C1642       C  0.65587139  0.07738333  0.51086546    -0.01410
C1643       C  0.68116486  0.08963540  0.53234772     0.03580
C1644       C  0.68835716  0.07294250  0.56321857    -0.04290
C1645       C  0.67179709  0.04265513  0.57121782    -0.01400
C1646       C  0.64810552  0.02930906  0.54877844     0.03570
C1647       C  0.64723522  0.09559306  0.48005709     0.38230
C1648       C  0.67951939  0.02495694  0.60266861     0.38220
C1649       C  0.63312313  0.99721855  0.55715315     0.36640
C1650       C  0.70056039  0.11861518  0.52207585     0.36640
N1651       N  0.62299471  0.97119269  0.56554213    -0.38180
N1652       N  0.71619378  0.14149786  0.51348302    -0.38180
N1653       N  0.68569021  0.01088356  0.62769210    -0.37620
N1654       N  0.64031141  0.11004121  0.45543643    -0.37630
C1655       C  0.63283593  0.92788902  0.48034034    -0.04290
C1656       C  0.64827275  0.94708221  0.45432314    -0.01410
C1657       C  0.67804693  0.93572436  0.43983442     0.03580
C1658       C  0.69428124  0.90623545  0.45202132    -0.04290
C1659       C  0.68063831  0.88818016  0.47940643    -0.01400
C1660       C  0.64990440  0.89893108  0.49354472     0.03570
C1661       C  0.63366212  0.97837419  0.44074060     0.38230
C1662       C  0.69772058  0.85795719  0.49220978     0.38220
C1663       C  0.63512454  0.87910237  0.52016478     0.36640
C1664       C  0.69035427  0.95292320  0.41000973     0.36640
N1665       N  0.62339291  0.86317842  0.54142526    -0.38180
N1666       N  0.69932269  0.96648376  0.38591233    -0.38180
N1667       N  0.71138485  0.83384430  0.50248457    -0.37620
N1668       N  0.62362833  0.00332599  0.42844472    -0.37630
loop_ 
_geom_bond_atom_site_label_1 
_geom_bond_atom_site_label_2 
_geom_bond_distance 
_geom_bond_site_symmetry_2 
_ccdc_geom_bond_type 
O1          Zr13   2.385       .  S
O1            C3   1.269       .  A
O2          Zr39   2.499   1_545  S
O2            C3   1.294       .  A
C3         C1641   1.478       .  S
O4          Zr16   2.422       .  S
O4            C6   1.277       .  A
O5          Zr40   2.507   1_565  S
O5            C6   1.295       .  A
C6         C1574   1.517       .  S
O7          Zr16   2.538       .  S
O7            C9   1.303       .  A
O8          Zr39   2.341       .  S
O8            C9   1.268       .  A
C9         C1655   1.500       .  S
O10         Zr13   2.480       .  S
O10          C12   1.289       .  A
O11         Zr40   2.373       .  S
O11          C12   1.266       .  A
C12        C1557   1.492       .  S
Zr13         O14   2.436       .  S
Zr13         O15   2.434       .  S
Zr13         O19   2.399   1_545  S
Zr13         O20   2.359       .  S
Zr13         O43   2.349       .  S
Zr13         O45   2.407       .  S
O14          H57   0.990       .  S
O15          H56   0.990       .  S
O15          H60   0.990       .  S
Zr16         O17   2.437       .  S
Zr16         O18   2.430       .  S
Zr16         O20   2.410   1_565  S
Zr16         O19   2.333       .  S
Zr16         O44   2.340       .  S
Zr16         O46   2.397       .  S
O17          H58   0.990       .  S
O17          H61   0.990       .  S
O18          H51   0.990       .  S
O19         Zr39   2.374       .  S
O20         Zr40   2.402       .  S
O20          H47   0.965       .  S
O21         Zr33   2.411       .  S
O21          C23   1.279       .  A
O22         Zr40   2.481       .  S
O22          C23   1.297       .  A
C23        C1585   1.487       .  S
O24         Zr36   2.389       .  S
O24          C26   1.270       .  A
O25         Zr39   2.496       .  S
O25          C26   1.295       .  A
C26        C1627   1.483       .  S
O27         Zr36   2.512       .  S
O27          C29   1.300       .  A
O28         Zr40   2.333   1_565  S
O28          C29   1.269       .  A
C29        C1602   1.492       .  S
O30         Zr33   2.526       .  S
O30          C32   1.301       .  A
O31         Zr39   2.353   1_545  S
O31          C32   1.273       .  A
C32        C1613   1.503       .  S
Zr33         O34   2.442       .  S
Zr33         O35   2.435       .  S
Zr33         O41   2.411       .  S
Zr33         O42   2.354   1_545  S
Zr33         O45   2.330       .  S
Zr33         O43   2.396       .  S
O34          H54   0.991       .  S
O34          H59   0.990       .  S
O35          H55   0.990       .  S
Zr36         O37   2.433       .  S
Zr36         O38   2.435       .  S
Zr36         O42   2.412       .  S
Zr36         O41   2.335   1_565  S
Zr36         O46   2.322       .  S
Zr36         O44   2.396       .  S
O37          H53   0.989       .  S
O38          H52   0.990       .  S
O38          H62   0.990       .  S
Zr39         O42   2.370       .  S
Zr39         O44   2.382       .  S
Zr39         O45   2.383   1_565  S
Zr40         O41   2.381       .  S
Zr40         O43   2.379       .  S
Zr40         O46   2.383   1_545  S
O41          H49   0.960       .  S
O44          H48   0.965       .  S
O45          H50   0.966       .  S
O63         Zr75   2.377       .  S
O63          C65   1.273       .  A
O64        Zr101   2.482   1_455  S
O64          C65   1.298       .  A
C65        C1543   1.471       .  S
O66         Zr78   2.400       .  S
O66          C68   1.281       .  A
O67        Zr102   2.456       .  S
O67          C68   1.294       .  A
C68        C1459   1.479       .  S
O69         Zr78   2.527       .  S
O69          C71   1.302       .  A
O70        Zr101   2.370       .  S
O70          C71   1.278       .  A
C71        C1529   1.502       .  S
O72         Zr75   2.501       .  S
O72          C74   1.296       .  A
O73        Zr102   2.368   1_455  S
O73          C74   1.275       .  A
C74        C1445   1.491       .  S
Zr75         O76   2.435       .  S
Zr75         O77   2.436       .  S
Zr75         O81   2.407   1_455  S
Zr75         O82   2.349   1_455  S
Zr75        O105   2.337       .  S
Zr75        O107   2.407       .  S
O76         H119   0.989       .  S
O77         H118   0.990       .  S
O77         H122   0.990       .  S
Zr78         O79   2.434       .  S
Zr78         O80   2.434       .  S
Zr78         O82   2.408       .  S
Zr78         O81   2.345       .  S
Zr78        O106   2.334       .  S
Zr78        O108   2.403       .  S
O79         H120   0.990       .  S
O79         H123   0.990       .  S
O80         H113   0.990       .  S
O81        Zr101   2.384       .  S
O82        Zr102   2.379       .  S
O82         H109   0.966       .  S
O83         Zr95   2.399       .  S
O83          C85   1.282       .  A
O84        Zr102   2.443   1_455  S
O84          C85   1.291       .  A
C85        C1501   1.477       .  S
O86         Zr98   2.391       .  S
O86          C88   1.267       .  A
O87        Zr101   2.496       .  S
O87          C88   1.296       .  A
C88        C1487   1.502       .  S
O89         Zr98   2.491       .  S
O89          C91   1.293       .  A
O90        Zr102   2.368       .  S
O90          C91   1.276       .  A
C91        C1515   1.487       .  S
O92         Zr95   2.530       .  S
O92          C94   1.304       .  A
O93        Zr101   2.363   1_455  S
O93          C94   1.276       .  A
C94        C1473   1.510       .  S
Zr95         O96   2.434       .  S
Zr95         O97   2.433       .  S
Zr95        O103   2.407   1_455  S
Zr95        O104   2.338   1_455  S
Zr95        O107   2.331       .  S
Zr95        O105   2.401       .  S
O96         H116   0.990       .  S
O96         H121   0.990       .  S
O97         H117   0.990       .  S
Zr98         O99   2.432       .  S
Zr98        O100   2.435       .  S
Zr98        O104   2.404       .  S
Zr98        O103   2.348       .  S
Zr98        O108   2.337       .  S
Zr98        O106   2.404       .  S
O99         H115   0.990       .  S
O100        H114   0.990       .  S
O100        H124   0.990       .  S
Zr101       O104   2.376       .  S
Zr101       O106   2.386       .  S
Zr101       O107   2.384   1_655  S
Zr102       O103   2.373       .  S
Zr102       O105   2.376   1_655  S
Zr102       O108   2.367       .  S
O103        H111   0.966       .  S
O106        H110   0.964       .  S
O107        H112   0.965       .  S
O125       Zr137   2.398       .  S
O125        C127   1.277       .  A
O126       Zr163   2.500   1_556  S
O126        C127   1.299       .  A
C127       C1431   1.488       .  S
O128       Zr140   2.414       .  S
O128        C130   1.275       .  A
O129       Zr164   2.470       .  S
O129        C130   1.290       .  A
C130       C1336   1.505       .  S
O131       Zr140   2.531       .  S
O131        C133   1.300       .  A
O132       Zr163   2.337       .  S
O132        C133   1.263       .  A
C133       C1420   1.500       .  S
O134       Zr137   2.480       .  S
O134        C136   1.293       .  A
O135       Zr164   2.387   1_556  S
O135        C136   1.280       .  A
C136       C1350   1.488       .  S
Zr137       O138   2.434       .  S
Zr137       O139   2.436       .  S
Zr137       O143   2.394       .  S
Zr137       O144   2.356       .  S
Zr137       O167   2.351       .  S
Zr137       O169   2.393       .  S
O138        H181   0.990       .  S
O139        H180   0.990       .  S
O139        H184   0.990       .  S
Zr140       O141   2.438       .  S
Zr140       O142   2.431       .  S
Zr140       O144   2.418   1_554  S
Zr140       O143   2.337   1_554  S
Zr140       O168   2.352       .  S
Zr140       O170   2.400       .  S
O141        H182   0.990       .  S
O141        H185   0.990       .  S
O142        H175   0.990       .  S
O143       Zr163   2.371   1_556  S
O144       Zr164   2.408   1_556  S
O144        H171   0.966       .  S
O145       Zr157   2.364       .  S
O145        C147   1.273       .  A
O146       Zr164   2.484   1_556  S
O146        C147   1.296       .  A
C147       C1375   1.491       .  S
O148       Zr160   2.407       .  S
O148        C150   1.281       .  A
O149       Zr163   2.462       .  S
O149        C150   1.292       .  A
C150       C1389   1.474       .  S
O151       Zr160   2.487       .  S
O151        C153   1.294       .  A
O152       Zr164   2.373       .  S
O152        C153   1.278       .  A
C153       C1364   1.490       .  S
O154       Zr157   2.495       .  S
O154        C156   1.296       .  A
O155       Zr163   2.350   1_556  S
O155        C156   1.275       .  A
C156       C1406   1.495       .  S
Zr157       O158   2.441       .  S
Zr157       O159   2.432       .  S
Zr157       O165   2.415   1_556  S
Zr157       O166   2.332   1_556  S
Zr157       O169   2.335       .  S
Zr157       O167   2.387       .  S
O158        H178   0.990       .  S
O158        H183   0.990       .  S
O159        H179   0.989       .  S
Zr160       O161   2.432       .  S
Zr160       O162   2.436       .  S
Zr160       O166   2.389       .  S
Zr160       O165   2.363       .  S
Zr160       O170   2.326       .  S
Zr160       O168   2.379       .  S
O161        H177   0.989       .  S
O162        H176   0.990       .  S
O162        H186   0.990       .  S
Zr163       O166   2.363       .  S
Zr163       O168   2.386       .  S
Zr163       O169   2.376   1_554  S
Zr164       O165   2.396       .  S
Zr164       O167   2.384   1_554  S
Zr164       O170   2.389       .  S
O165        H173   0.966       .  S
O168        H172   0.966       .  S
O169        H174   0.966       .  S
C187       C1571   1.528       .  S
C187        C188   1.421       .  A
C187        C192   1.410       .  A
C188        C189   1.416       .  A
C188        H193   1.078       .  S
C189       C1319   1.518       .  S
C189        C190   1.411       .  A
C190        C191   1.409       .  A
C190        H194   1.083       .  S
C191       C1305   1.496       .  S
C191        C192   1.399       .  A
C192        H195   1.082       .  S
C196       C1322   1.543       .  S
C196        C197   1.426       .  A
C196        C201   1.422       .  A
C197        C198   1.420       .  A
C197        H202   1.080       .  S
C198       C1277   1.508       .  S
C198        C199   1.401       .  A
C199        C200   1.397       .  A
C199        H203   1.084       .  S
C200       C1294   1.499       .  S
C200        C201   1.408       .  A
C201        H204   1.081       .  S
C205       C1263   1.500       .  S
C205        C206   1.409       .  A
C205        C210   1.409       .  A
C206        C207   1.411       .  A
C206        H211   1.083       .  S
C207       C1532   1.507       .  S
C207        C208   1.410       .  A
C208        C209   1.407       .  A
C208        H212   1.083       .  S
C209       C1291   1.506       .  S
C209        C210   1.405       .  A
C210        H213   1.084       .  S
C214       C1249   1.484       .  S
C214        C215   1.395       .  A
C214        C219   1.404       .  A
C215        C216   1.405       .  A
C215        H220   1.080       .  S
C216       C1378   1.520       .  S
C216        C217   1.421       .  A
C217        C218   1.411       .  A
C217        H221   1.076       .  S
C218       C1280   1.511       .  S
C218        C219   1.408       .  A
C219        H222   1.083       .  S
C223       C1235   1.486       .  S
C223        C224   1.398       .  A
C223        C228   1.405       .  A
C224        C225   1.397       .  A
C224        H229   1.085       .  S
C225       C1221   1.485       .  S
C225        C226   1.403       .  A
C226        C227   1.404       .  A
C226        H230   1.084       .  S
C227       C1207   1.492       .  S
C227        C228   1.409       .  A
C228        H231   1.084       .  S
C232       C1193   1.476       .  S
C232        C233   1.396       .  A
C232        C237   1.392       .  A
C233        C234   1.405       .  A
C233        H238   1.084       .  S
C234       C1434   1.495       .  S
C234        C235   1.414       .  A
C235        C236   1.411       .  A
C235        H239   1.083       .  S
C236       C1238   1.492       .  S
C236        C237   1.400       .  A
C237        H240   1.085       .  S
C241       C1182   1.477       .  S
C241        C242   1.400       .  A
C241        C246   1.404       .  A
C242        C243   1.395       .  A
C242        H247   1.085       .  S
C243       C1560   1.470       .  S
C243        C244   1.394       .  A
C244        C245   1.399       .  A
C244        H248   1.085       .  S
C245       C1224   1.483       .  S
C245        C246   1.406       .  A
C246        H249   1.084       .  S
C250       C1165   1.494       .  S
C250        C251   1.404       .  A
C250        C255   1.400       .  A
C251        C252   1.407       .  A
C251        H256   1.073       .  S
C252       C1504   1.531       .  S
C252        C253   1.418       .  A
C253        C254   1.408       .  A
C253        H257   1.075       .  S
C254       C1210   1.494       .  S
C254        C255   1.404       .  A
C255        H258   1.083       .  S
O259       Zr271   2.402       .  S
O259        C261   1.277   1_565  A
O260       Zr297   2.516       .  S
O260        C261   1.299       .  A
C261       C1308   1.495       .  S
O262       Zr274   2.413   1_554  S
O262        C264   1.281       .  A
O263       Zr298   2.472       .  S
O263        C264   1.298       .  A
C264       C1098   1.495       .  S
O265       Zr274   2.516   1_545  S
O265        C267   1.298       .  A
O266       Zr297   2.353       .  S
O266        C267   1.264       .  A
C267       C1179   1.494       .  S
O268       Zr271   2.461   1_554  S
O268        C270   1.290       .  A
O269       Zr298   2.397       .  S
O269        C270   1.281       .  A
C270       C1081   1.478       .  S
Zr271       O272   2.434       .  S
Zr271       O273   2.436       .  S
Zr271       O277   2.389       .  S
Zr271       O278   2.368   1_556  S
Zr271       O301   2.343   1_556  S
Zr271       O303   2.383   1_565  S
O272        H315   0.990       .  S
O273        H314   0.990       .  S
O273        H318   0.990       .  S
Zr274       O275   2.438       .  S
Zr274       O276   2.437       .  S
Zr274       O278   2.410   1_556  S
Zr274       O277   2.355       .  S
Zr274       O302   2.342   1_566  S
Zr274       O304   2.393   1_556  S
O275        H316   0.990       .  S
O275        H319   0.990       .  S
O276        H309   0.990   1_565  S
O277       Zr297   2.373   1_565  S
O278       Zr298   2.385       .  S
O278        H305   0.966       .  S
O279       Zr291   2.415       .  S
O279        C281   1.285   1_545  A
O280       Zr298   2.467       .  S
O280        C281   1.295       .  A
C281       C1112   1.502       .  S
O282       Zr294   2.416       .  S
O282        C284   1.284       .  A
O283       Zr297   2.460       .  S
O283        C284   1.295   1_556  A
C284       C1140   1.486       .  S
O285       Zr294   2.461       .  S
O285        C287   1.289   1_545  A
O286       Zr298   2.375       .  S
O286        C287   1.279       .  A
C287       C1126   1.474       .  S
O288       Zr291   2.469       .  S
O288        C290   1.291   1_554  A
O289       Zr297   2.387       .  S
O289        C290   1.282       .  A
C290       C1151   1.478       .  S
Zr291       O292   2.435       .  S
Zr291       O293   2.431       .  S
Zr291       O299   2.386       .  S
Zr291       O300   2.352       .  S
Zr291       O303   2.361   1_554  S
Zr291       O301   2.381   1_545  S
O292        H312   0.990       .  S
O292        H317   0.990       .  S
O293        H313   0.990       .  S
Zr294       O295   2.434       .  S
Zr294       O296   2.434       .  S
Zr294       O300   2.386       .  S
Zr294       O299   2.360       .  S
Zr294       O304   2.361   1_545  S
Zr294       O302   2.371       .  S
O295        H311   0.990       .  S
O296        H310   0.990       .  S
O296        H320   0.990       .  S
Zr297       O300   2.379   1_556  S
Zr297       O302   2.386   1_556  S
Zr297       O303   2.379       .  S
Zr298       O299   2.386   1_565  S
Zr298       O301   2.374       .  S
Zr298       O304   2.379       .  S
O299        H307   0.966       .  S
O302        H306   0.965   1_554  S
O303        H308   0.966       .  S
C321       C1053   1.484       .  S
C321        C322   1.398       .  A
C321        C326   1.397       .  A
C322        C323   1.403       .  A
C322        H327   1.084       .  S
C323       C1067   1.505       .  S
C323        C324   1.422       .  A
C324        C325   1.418       .  A
C324        H328   1.083       .  S
C325       C1039   1.511       .  S
C325        C326   1.403       .  A
C326        H329   1.084       .  S
C330       C1095   1.524   1_556  S
C330        C331   1.422       .  A
C330        C335   1.409       .  A
C331        C332   1.429       .  A
C331        H336   1.071       .  S
C332       C1070   1.540       .  S
C332        C333   1.411       .  A
C333        C334   1.401       .  A
C333        H337   1.079       .  S
C334       C1403   1.488       .  S
C334        C335   1.395       .  A
C335        H338   1.084       .  S
C339       C1028   1.475       .  S
C339        C340   1.389       .  A
C339        C344   1.404       .  A
C340        C341   1.392       .  A
C340        H345   1.086       .  S
C341       C1599   1.473       .  S
C341        C342   1.397       .  A
C342        C343   1.408       .  A
C342        H346   1.084       .  S
C343       C1056   1.494       .  S
C343        C344   1.413       .  A
C344        H347   1.083       .  S
C348       C1476   1.506       .  S
C348        C349   1.415       .  A
C348        C353   1.413       .  A
C349        C350   1.406       .  A
C349        H354   1.084       .  S
C350       C1042   1.496       .  S
C350        C351   1.395       .  A
C351        C352   1.403       .  A
C351        H355   1.085       .  S
C352       C1014   1.498       .  S
C352        C353   1.410       .  A
C353        H356   1.083       .  S
C357        C969   1.501       .  S
C357        C358   1.404       .  A
C357        C362   1.414       .  A
C358        C359   1.402       .  A
C358        H363   1.083       .  S
C359        C997   1.495       .  S
C359        C360   1.407       .  A
C360        C361   1.411       .  A
C360        H364   1.082       .  S
C361        C983   1.522       .  S
C361        C362   1.414       .  A
C362        H365   1.082       .  S
C366       C1518   1.499       .  S
C366        C367   1.412       .  A
C366        C371   1.400       .  A
C367        C368   1.418       .  A
C367        H372   1.078       .  S
C368       C1000   1.540       .  S
C368        C369   1.417       .  A
C369        C370   1.414       .  A
C369        H373   1.076       .  S
C370        C955   1.494       .  S
C370        C371   1.398       .  A
C371        H374   1.082       .  S
C375       C1361   1.497       .  S
C375        C376   1.407       .  A
C375        C380   1.405       .  A
C376        C377   1.408       .  A
C376        H381   1.084       .  S
C377        C941   1.484       .  S
C377        C378   1.401       .  A
C378        C379   1.399       .  A
C378        H382   1.084       .  S
C379        C986   1.483       .  S
C379        C380   1.400       .  A
C380        H383   1.084       .  S
C384       C1616   1.494       .  S
C384        C385   1.406       .  A
C384        C389   1.398       .  A
C385        C386   1.415       .  A
C385        H390   1.080       .  S
C386       C1109   1.530       .  S
C386        C387   1.418       .  A
C387        C388   1.413       .  A
C387        H391   1.072       .  S
C388        C972   1.509       .  S
C388        C389   1.405       .  A
C389        H392   1.082       .  S
O393       Zr405   2.395       .  S
O393        C395   1.275   1_556  A
O394       Zr431   2.493       .  S
O394        C395   1.295       .  A
C395       C1252   1.482   1_554  S
O396       Zr408   2.417       .  S
O396        C398   1.275   1_655  A
O397       Zr432   2.448       .  S
O397        C398   1.286       .  A
C398        C888   1.479   1_455  S
O399       Zr408   2.546       .  S
O399        C401   1.304   1_556  A
O400       Zr431   2.352       .  S
O400        C401   1.271       .  A
C401        C944   1.512       .  S
O402       Zr405   2.508       .  S
O402        C404   1.297   1_655  A
O403       Zr432   2.355       .  S
O403        C404   1.274       .  A
C404       C1011   1.499       .  S
Zr405       O406   2.434       .  S
Zr405       O407   2.435       .  S
Zr405       O411   2.411       .  S
Zr405       O412   2.344       .  S
Zr405       O435   2.348       .  S
Zr405       O437   2.393   1_556  S
O406        H449   0.989       .  S
O407        H448   0.990   1_556  S
O407        H452   0.990       .  S
Zr408       O409   2.435       .  S
Zr408       O410   2.433       .  S
Zr408       O412   2.420       .  S
Zr408       O411   2.338       .  S
Zr408       O436   2.349   1_556  S
Zr408       O438   2.395   1_655  S
O409        H450   0.989       .  S
O409        H453   0.990       .  S
O410        H443   0.990       .  S
O411       Zr431   2.367   1_556  S
O412       Zr432   2.389   1_655  S
O412        H439   0.961       .  S
O413       Zr425   2.407       .  S
O413        C415   1.280   1_554  A
O414       Zr432   2.464       .  S
O414        C415   1.294       .  A
C415        C930   1.481   1_556  S
O416       Zr428   2.400       .  S
O416        C418   1.279   1_455  A
O417       Zr431   2.499       .  S
O417        C418   1.298       .  A
C418        C913   1.490       .  S
O419       Zr428   2.505   1_556  S
O419        C421   1.298       .  A
O420       Zr432   2.338       .  S
O420        C421   1.270       .  A
C421       C1196   1.497       .  S
O422       Zr425   2.515   1_655  S
O422        C424   1.300       .  A
O423       Zr431   2.331       .  S
O423        C424   1.269       .  A
C424        C899   1.488       .  S
Zr425       O426   2.437       .  S
Zr425       O427   2.434   1_455  S
Zr425       O433   2.409       .  S
Zr425       O434   2.350   1_455  S
Zr425       O437   2.340   1_455  S
Zr425       O435   2.395   1_454  S
O426        H446   0.990       .  S
O426        H451   0.990       .  S
O427        H447   0.990       .  S
Zr428       O429   2.435       .  S
Zr428       O430   2.434       .  S
Zr428       O434   2.398   1_455  S
Zr428       O433   2.354       .  S
Zr428       O438   2.323   1_554  S
Zr428       O436   2.396   1_455  S
O429        H445   0.990       .  S
O430        H444   0.990   1_554  S
O430        H454   0.990       .  S
Zr431       O434   2.361       .  S
Zr431       O436   2.376       .  S
Zr431       O437   2.389       .  S
Zr432       O433   2.374   1_556  S
Zr432       O435   2.369   1_455  S
Zr432       O438   2.382       .  S
O433        H441   0.964       .  S
O436        H440   0.966       .  S
O437        H442   0.966       .  S
C455       C1588   1.494       .  S
C455        C456   1.407       .  A
C455        C460   1.409       .  A
C456        C457   1.407       .  A
C456        H461   1.083       .  S
C457        C871   1.503       .  S
C457        C458   1.407       .  A
C458        C459   1.411       .  A
C458        H462   1.082       .  S
C459        C857   1.518       .  S
C459        C460   1.409       .  A
C460        H463   1.082       .  S
C464        C829   1.527       .  S
C464        C465   1.417       .  A
C464        C469   1.418       .  A
C465        C466   1.412       .  A
C465        H470   1.082       .  S
C466        C874   1.502       .  S
C466        C467   1.406       .  A
C467        C468   1.403       .  A
C467        H471   1.084       .  S
C468        C843   1.502       .  S
C468        C469   1.409       .  A
C469        H472   1.082       .  S
C473        C916   1.497       .  S
C473        C474   1.409       .  A
C473        C478   1.408       .  A
C474        C475   1.410       .  A
C474        H479   1.083       .  S
C475        C846   1.511       .  S
C475        C476   1.410       .  A
C476        C477   1.413       .  A
C476        H480   1.082       .  S
C477       C1448   1.519       .  S
C477        C478   1.408       .  A
C478        H481   1.082       .  S
C482       C1333   1.510       .  S
C482        C483   1.404       .  A
C482        C487   1.406       .  A
C483        C484   1.407       .  A
C483        H488   1.068       .  S
C484       C1137   1.535       .  S
C484        C485   1.426       .  A
C485        C486   1.411       .  A
C485        H489   1.075       .  S
C486        C832   1.508       .  S
C486        C487   1.405       .  A
C487        H490   1.080       .  S
C491        C815   1.501       .  S
C491        C492   1.406       .  A
C491        C496   1.413       .  A
C492        C493   1.403       .  A
C492        H497   1.084       .  S
C493        C801   1.491       .  S
C493        C494   1.402       .  A
C494        C495   1.402       .  A
C494        H498   1.084       .  S
C495        C787   1.494       .  S
C495        C496   1.409       .  A
C496        H499   1.083       .  S
C500        C885   1.477       .  S
C500        C501   1.399       .  A
C500        C505   1.404       .  A
C501        C502   1.397       .  A
C501        H506   1.081       .  S
C502       C1490   1.508       .  S
C502        C503   1.416       .  A
C503        C504   1.406       .  A
C503        H507   1.080       .  S
C504        C818   1.505       .  S
C504        C505   1.406       .  A
C505        H508   1.083       .  S
C509       C1347   1.499       .  S
C509        C510   1.404       .  A
C509        C514   1.407       .  A
C510        C511   1.408       .  A
C510        H515   1.082       .  S
C511       C1154   1.503       .  S
C511        C512   1.408       .  A
C512        C513   1.404       .  A
C512        H516   1.082       .  S
C513        C804   1.501       .  S
C513        C514   1.403       .  A
C514        H517   1.083       .  S
C518       C1644   1.480       .  S
C518        C519   1.407       .  A
C518        C523   1.385       .  A
C519        C520   1.419       .  A
C519        H524   1.083       .  S
C520        C790   1.514       .  S
C520        C521   1.418       .  A
C521        C522   1.409       .  A
C521        H525   1.083       .  S
C522        C773   1.482       .  S
C522        C523   1.384       .  A
C523        H526   1.086       .  S
C527        C748   1.520       .  S
C527        C528   1.411       .  A
C527        C532   1.420       .  A
C528        C529   1.398       .  A
C528        H533   1.082       .  S
C529        C762   1.477       .  S
C529        C530   1.391       .  A
C530        C531   1.394       .  A
C530        H534   1.085       .  S
C531        C734   1.489       .  S
C531        C532   1.413       .  A
C532        H535   1.080       .  S
C536        C717   1.487       .  S
C536        C537   1.405       .  A
C536        C541   1.401       .  A
C537        C538   1.408       .  A
C537        H542   1.084       .  S
C538       C1658   1.486       .  S
C538        C539   1.400       .  A
C539        C540   1.402       .  A
C539        H543   1.084       .  S
C540        C759   1.488       .  S
C540        C541   1.400       .  A
C541        H544   1.084       .  S
C545       C1462   1.509       .  S
C545        C546   1.393       .  A
C545        C550   1.417       .  A
C546        C547   1.392       .  A
C546        H551   1.082       .  S
C547        C902   1.478       .  S
C547        C548   1.395       .  A
C548        C549   1.407       .  A
C548        H552   1.084       .  S
C549        C745   1.507       .  S
C549        C550   1.418       .  A
C550        H553   1.078       .  S
C554       C1084   1.535       .  S
C554        C555   1.408       .  A
C554        C559   1.423       .  A
C555        C556   1.399       .  A
C555        H560   1.071       .  S
C556       C1392   1.479       .  S
C556        C557   1.393       .  A
C557        C558   1.396       .  A
C557        H561   1.084       .  S
C558        C731   1.492       .  S
C558        C559   1.412       .  A
C559        H562   1.076       .  S
C563        C689   1.493       .  S
C563        C564   1.404       .  A
C563        C568   1.406       .  A
C564        C565   1.403       .  A
C564        H569   1.084       .  S
C565        C703   1.492       .  S
C565        C566   1.403       .  A
C566        C567   1.411       .  A
C566        H570   1.082       .  S
C567        C675   1.515       .  S
C567        C568   1.412       .  A
C568        H571   1.082       .  S
C572       C1630   1.487       .  S
C572        C573   1.388       .  A
C572        C577   1.406       .  A
C573        C574   1.388       .  A
C573        H578   1.085       .  S
C574       C1123   1.493       .  S
C574        C575   1.411       .  A
C575        C576   1.420       .  A
C575        H579   1.082       .  S
C576        C706   1.519       .  S
C576        C577   1.422       .  A
C577        H580   1.083       .  S
C581       C1546   1.483       .  S
C581        C582   1.411       .  A
C581        C586   1.382       .  A
C582        C583   1.422       .  A
C582        H587   1.083       .  S
C583        C692   1.518       .  S
C583        C584   1.420       .  A
C584        C585   1.407       .  A
C584        H588   1.082       .  S
C585        C664   1.481       .  S
C585        C586   1.381       .  A
C586        H589   1.087       .  S
C590        C927   1.503       .  S
C590        C591   1.399       .  A
C590        C595   1.415       .  A
C591        C592   1.391       .  A
C591        H596   1.085       .  S
C592       C1417   1.479       .  S
C592        C593   1.394       .  A
C593        C594   1.410       .  A
C593        H597   1.083       .  S
C594        C678   1.512       .  S
C594        C595   1.419       .  A
C595        H598   1.078       .  S
O599       Zr611   2.389       .  S
O599        C601   1.271   1_455  A
O600       Zr637   2.473       .  S
O600        C601   1.293       .  A
C601        C661   1.471   1_655  S
O602       Zr614   2.398       .  S
O602        C604   1.280   1_565  A
O603       Zr638   2.487       .  S
O603        C604   1.298       .  A
C604       C1025   1.476       .  S
O605       Zr614   2.533   1_655  S
O605        C607   1.303       .  A
O606       Zr637   2.362       .  S
O606        C607   1.275       .  A
C607       C1266   1.513       .  S
O608       Zr611   2.504       .  S
O608        C610   1.298   1_565  A
O609       Zr638   2.374       .  S
O609        C610   1.278       .  A
C610        C860   1.491       .  S
Zr611       O612   2.431       .  S
Zr611       O613   2.435       .  S
Zr611       O617   2.417       .  S
Zr611       O618   2.336       .  S
Zr611       O641   2.333   1_565  S
Zr611       O643   2.384   1_455  S
O612        H655   0.989       .  S
O613        H654   0.990       .  S
O613        H658   0.990       .  S
Zr614       O615   2.437       .  S
Zr614       O616   2.435       .  S
Zr614       O618   2.416       .  S
Zr614       O617   2.358       .  S
Zr614       O642   2.328   1_455  S
Zr614       O644   2.399   1_565  S
O615        H656   0.988       .  S
O615        H659   0.990       .  S
O616        H649   0.990   1_455  S
O617       Zr637   2.375   1_455  S
O618       Zr638   2.378   1_565  S
O618        H645   0.965       .  S
O619       Zr631   2.421   1_455  S
O619        C621   1.279       .  A
O620       Zr638   2.494       .  S
O620        C621   1.298       .  A
C621        C958   1.508       .  S
O622       Zr634   2.370       .  S
O622        C624   1.274   1_545  A
O623       Zr637   2.471       .  S
O623        C624   1.296       .  A
C624        C776   1.468       .  S
O625       Zr634   2.456       .  S
O625        C627   1.287   1_655  A
O626       Zr638   2.388       .  S
O626        C627   1.282       .  A
C627       C1168   1.473       .  S
O628       Zr631   2.509   1_565  S
O628        C630   1.299       .  A
O629       Zr637   2.347       .  S
O629        C630   1.274       .  A
C630        C720   1.498       .  S
Zr631       O632   2.437       .  S
Zr631       O633   2.432       .  S
Zr631       O639   2.406       .  S
Zr631       O640   2.348       .  S
Zr631       O643   2.329   1_545  S
Zr631       O641   2.390   1_655  S
O632        H652   0.989       .  S
O632        H657   0.989       .  S
O633        H653   0.990       .  S
Zr634       O635   2.435       .  S
Zr634       O636   2.435       .  S
Zr634       O640   2.394       .  S
Zr634       O639   2.353       .  S
Zr634       O644   2.348   1_655  S
Zr634       O642   2.383   1_545  S
O635        H651   0.990       .  S
O636        H650   0.990       .  S
O636        H660   0.990       .  S
Zr637       O640   2.366   1_565  S
Zr637       O642   2.371       .  S
Zr637       O643   2.373       .  S
Zr638       O639   2.388   1_455  S
Zr638       O641   2.380       .  S
Zr638       O644   2.388       .  S
O639        H647   0.966       .  S
O642        H646   0.966       .  S
O643        H648   0.965       .  S
C661        C662   1.412       .  A
C661        C666   1.408       .  A
C662        C663   1.409       .  A
C662        C667   1.450   1_455  S
C663        C664   1.413       .  A
C663        C670   1.449       .  S
C664        C665   1.413       .  A
C665        C666   1.405       .  A
C665        C668   1.453       .  S
C666        C669   1.446       .  S
C667        N674   1.157       .  T
C668        N673   1.157       .  T
C669        N671   1.155       .  T
C670        N672   1.157       .  T
C675        C676   1.423       .  A
C675        C680   1.420       .  A
C676        C677   1.418       .  A
C676        C681   1.451       .  S
C677        C678   1.418       .  A
C677        C684   1.450       .  S
C678        C679   1.419       .  A
C679        C680   1.409       .  A
C679        C682   1.454       .  S
C680        C683   1.452       .  S
C681        N688   1.157       .  T
C682        N687   1.158       .  T
C683        N685   1.158       .  T
C684        N686   1.158       .  T
C689        C690   1.407       .  A
C689        C694   1.409       .  A
C690        C691   1.418       .  A
C690        C695   1.451       .  S
C691        C692   1.425       .  A
C691        C698   1.447       .  S
C692        C693   1.423       .  A
C693        C694   1.414       .  A
C693        C696   1.448       .  S
C694        C697   1.453       .  S
C695        N702   1.157       .  T
C696        N701   1.156       .  T
C697        N699   1.157       .  T
C698        N700   1.156       .  T
C703        C704   1.404       .  A
C703        C708   1.410       .  A
C704        C705   1.415       .  A
C704        C709   1.453       .  S
C705        C706   1.426       .  A
C705        C712   1.444       .  S
C706        C707   1.423       .  A
C707        C708   1.417       .  A
C707        C710   1.450       .  S
C708        C711   1.451       .  S
C709        N716   1.157       .  T
C710        N715   1.157       .  T
C711        N713   1.157       .  T
C712        N714   1.155       .  T
C717        C718   1.415       .  A
C717        C722   1.407       .  A
C718        C719   1.417       .  A
C718        C723   1.447       .  S
C719        C720   1.413       .  A
C719        C726   1.449   1_565  S
C720        C721   1.425       .  A
C721        C722   1.402       .  A
C721        C724   1.453       .  S
C722        C725   1.455       .  S
C723        N730   1.157       .  T
C724        N729   1.156       .  T
C725        N727   1.157       .  T
C726        N728   1.157       .  T
C731        C732   1.417       .  A
C731        C736   1.412       .  A
C732        C733   1.407       .  A
C732        C737   1.453       .  S
C733        C734   1.411       .  A
C733        C740   1.452       .  S
C734        C735   1.415       .  A
C735        C736   1.417       .  A
C735        C738   1.450       .  S
C736        C739   1.449       .  S
C737        N744   1.157       .  T
C738        N743   1.157       .  T
C739        N741   1.157       .  T
C740        N742   1.157       .  T
C745        C746   1.412       .  A
C745        C750   1.419       .  A
C746        C747   1.414       .  A
C746        C751   1.452       .  S
C747        C748   1.426       .  A
C747        C754   1.451       .  S
C748        C749   1.422       .  A
C749        C750   1.415       .  A
C749        C752   1.450       .  S
C750        C753   1.454       .  S
C751        N758   1.158       .  T
C752        N757   1.157       .  T
C753        N755   1.158       .  T
C754        N756   1.157       .  T
C759        C760   1.415       .  A
C759        C764   1.418       .  A
C760        C761   1.405       .  A
C760        C765   1.452       .  S
C761        C762   1.409       .  A
C761        C768   1.452       .  S
C762        C763   1.408       .  A
C763        C764   1.409       .  A
C763        C766   1.451       .  S
C764        C767   1.451       .  S
C765        N772   1.157       .  T
C766        N771   1.157       .  T
C767        N769   1.157       .  T
C768        N770   1.157       .  T
C773        C774   1.410       .  A
C773        C778   1.415       .  A
C774        C775   1.409       .  A
C774        C779   1.448       .  S
C775        C776   1.414   1_545  A
C775        C782   1.451   1_545  S
C776        C777   1.409   1_565  A
C777        C778   1.404       .  A
C777        C780   1.449       .  S
C778        C781   1.454       .  S
C779        N786   1.157       .  T
C780        N785   1.155       .  T
C781        N783   1.157       .  T
C782        N784   1.157       .  T
C787        C788   1.409       .  A
C787        C792   1.409       .  A
C788        C789   1.415       .  A
C788        C793   1.452       .  S
C789        C790   1.422       .  A
C789        C796   1.448       .  S
C790        C791   1.423       .  A
C791        C792   1.417       .  A
C791        C794   1.449       .  S
C792        C795   1.451       .  S
C793        N800   1.157       .  T
C794        N799   1.157       .  T
C795        N797   1.157       .  T
C796        N798   1.156       .  T
C801        C802   1.412       .  A
C801        C806   1.412       .  A
C802        C803   1.413       .  A
C802        C807   1.452       .  S
C803        C804   1.419       .  A
C803        C810   1.451       .  S
C804        C805   1.419       .  A
C805        C806   1.411       .  A
C805        C808   1.452       .  S
C806        C809   1.452       .  S
C807        N814   1.157       .  T
C808        N813   1.157       .  T
C809        N811   1.157       .  T
C810        N812   1.157       .  T
C815        C816   1.414       .  A
C815        C820   1.416       .  A
C816        C817   1.415       .  A
C816        C821   1.451       .  S
C817        C818   1.418       .  A
C817        C824   1.451       .  S
C818        C819   1.417       .  A
C819        C820   1.415       .  A
C819        C822   1.451       .  S
C820        C823   1.451       .  S
C821        N828   1.157       .  T
C822        N827   1.157       .  T
C823        N825   1.157       .  T
C824        N826   1.157       .  T
C829        C830   1.425       .  A
C829        C834   1.428       .  A
C830        C831   1.415       .  A
C830        C835   1.450       .  S
C831        C832   1.413       .  A
C831        C838   1.452       .  S
C832        C833   1.411       .  A
C833        C834   1.423       .  A
C833        C836   1.451       .  S
C834        C837   1.448       .  S
C835        N842   1.157       .  T
C836        N841   1.157       .  T
C837        N839   1.157       .  T
C838        N840   1.157       .  T
C843        C844   1.413       .  A
C843        C848   1.412       .  A
C844        C845   1.421       .  A
C844        C849   1.450       .  S
C845        C846   1.420       .  A
C845        C852   1.450       .  S
C846        C847   1.418       .  A
C847        C848   1.414       .  A
C847        C850   1.451       .  S
C848        C851   1.450       .  S
C849        N856   1.157       .  T
C850        N855   1.157       .  T
C851        N853   1.157       .  T
C852        N854   1.157       .  T
C857        C858   1.423       .  A
C857        C862   1.429       .  A
C858        C859   1.410       .  A
C858        C863   1.452       .  S
C859        C860   1.408       .  A
C859        C866   1.450       .  S
C860        C861   1.406       .  A
C861        C862   1.419       .  A
C861        C864   1.447   1_545  S
C862        C865   1.449       .  S
C863        N870   1.158       .  T
C864        N869   1.156       .  T
C865        N867   1.157       .  T
C866        N868   1.157       .  T
C871        C872   1.415       .  A
C871        C876   1.417       .  A
C872        C873   1.414       .  A
C872        C877   1.451       .  S
C873        C874   1.414       .  A
C873        C880   1.449       .  S
C874        C875   1.415       .  A
C875        C876   1.418       .  A
C875        C878   1.450       .  S
C876        C879   1.450       .  S
C877        N884   1.157       .  T
C878        N883   1.157       .  T
C879        N881   1.157       .  T
C880        N882   1.157       .  T
C885        C886   1.408       .  A
C885        C890   1.409       .  A
C886        C887   1.414       .  A
C886        C891   1.448       .  S
C887        C888   1.416       .  A
C887        C894   1.450   1_655  S
C888        C889   1.409       .  A
C889        C890   1.399       .  A
C889        C892   1.445       .  S
C890        C893   1.455       .  S
C891        N898   1.157       .  T
C892        N897   1.155       .  T
C893        N895   1.157       .  T
C894        N896   1.157       .  T
C899        C900   1.426       .  A
C899        C904   1.412       .  A
C900        C901   1.396       .  A
C900        C905   1.453       .  S
C901        C902   1.403       .  A
C901        C908   1.458       .  S
C902        C903   1.415       .  A
C903        C904   1.416       .  A
C903        C906   1.449       .  S
C904        C907   1.448       .  S
C905        N912   1.158       .  T
C906        N911   1.157       .  T
C907        N909   1.157       .  T
C908        N910   1.158       .  T
C913        C914   1.415       .  A
C913        C918   1.411   1_655  A
C914        C915   1.424   1_655  A
C914        C919   1.448       .  S
C915        C916   1.415       .  A
C915        C922   1.448   1_455  S
C916        C917   1.409       .  A
C917        C918   1.405       .  A
C917        C920   1.453       .  S
C918        C921   1.445       .  S
C919        N926   1.157       .  T
C920        N925   1.157       .  T
C921        N923   1.154       .  T
C922        N924   1.157       .  T
C927        C928   1.418       .  A
C927        C932   1.422       .  A
C928        C929   1.417       .  A
C928        C933   1.450       .  S
C929        C930   1.416       .  A
C929        C936   1.451       .  S
C930        C931   1.408       .  A
C931        C932   1.404       .  A
C931        C934   1.451       .  S
C932        C935   1.456       .  S
C933        N940   1.157       .  T
C934        N939   1.156       .  T
C935        N937   1.157       .  T
C936        N938   1.158   1_554  T
C941        C942   1.401       .  A
C941        C946   1.412       .  A
C942        C943   1.400       .  A
C942        C947   1.456       .  S
C943        C944   1.430       .  A
C943        C950   1.456       .  S
C944        C945   1.423       .  A
C945        C946   1.428       .  A
C945        C948   1.446   1_554  S
C946        C949   1.453       .  S
C947        N954   1.157       .  T
C948        N953   1.157       .  T
C949        N951   1.158       .  T
C950        N952   1.158       .  T
C955        C956   1.417   1_655  A
C955        C960   1.407       .  A
C956        C957   1.427       .  A
C956        C961   1.447       .  S
C957        C958   1.421       .  A
C957        C964   1.446       .  S
C958        C959   1.418   1_455  A
C959        C960   1.390       .  A
C959        C962   1.447       .  S
C960        C963   1.455       .  S
C961        N968   1.157       .  T
C962        N967   1.156       .  T
C963        N965   1.158       .  T
C964        N966   1.157       .  T
C969        C970   1.416       .  A
C969        C974   1.408       .  A
C970        C971   1.420       .  A
C970        C975   1.450       .  S
C971        C972   1.422       .  A
C971        C978   1.450       .  S
C972        C973   1.418       .  A
C973        C974   1.405       .  A
C973        C976   1.450       .  S
C974        C977   1.449       .  S
C975        N982   1.157       .  T
C976        N981   1.157       .  T
C977        N979   1.157       .  T
C978        N980   1.157       .  T
C983        C984   1.429       .  A
C983        C988   1.429       .  A
C984        C985   1.414       .  A
C984        C989   1.448       .  S
C985        C986   1.403       .  A
C985        C992   1.454       .  S
C986        C987   1.403       .  A
C987        C988   1.414       .  A
C987        C990   1.454       .  S
C988        C991   1.446       .  S
C989        N996   1.156       .  T
C990        N995   1.157       .  T
C991        N993   1.156       .  T
C992        N994   1.157       .  T
C997        C998   1.402       .  A
C997       C1002   1.404       .  A
C998        C999   1.408       .  A
C998       C1003   1.452       .  S
C999       C1000   1.431       .  A
C999       C1006   1.448       .  S
C1000      C1001   1.442       .  A
C1001      C1002   1.422       .  A
C1001      C1004   1.448       .  S
C1002      C1005   1.453       .  S
C1003      N1010   1.157       .  T
C1004      N1009   1.158       .  T
C1005      N1007   1.157       .  T
C1006      N1008   1.157       .  T
C1011      C1012   1.416       .  A
C1011      C1016   1.414   1_455  A
C1012      C1013   1.400       .  A
C1012      C1017   1.448       .  S
C1013      C1014   1.412       .  A
C1013      C1020   1.456       .  S
C1014      C1015   1.419       .  A
C1015      C1016   1.425   1_455  A
C1015      C1018   1.448   1_455  S
C1016      C1019   1.447       .  S
C1017      N1024   1.155       .  T
C1018      N1023   1.157       .  T
C1019      N1021   1.157       .  T
C1020      N1022   1.158       .  T
C1025      C1026   1.411       .  A
C1025      C1030   1.418   1_545  A
C1026      C1027   1.419       .  A
C1026      C1031   1.448       .  S
C1027      C1028   1.414   1_545  A
C1027      C1034   1.448       .  S
C1028      C1029   1.401       .  A
C1029      C1030   1.396       .  A
C1029      C1032   1.458       .  S
C1030      C1033   1.445       .  S
C1031      N1038   1.157       .  T
C1032      N1037   1.157       .  T
C1033      N1035   1.155       .  T
C1034      N1036   1.157       .  T
C1039      C1040   1.419       .  A
C1039      C1044   1.422       .  A
C1040      C1041   1.418       .  A
C1040      C1045   1.446       .  S
C1041      C1042   1.411       .  A
C1041      C1048   1.452       .  S
C1042      C1043   1.411       .  A
C1043      C1044   1.414       .  A
C1043      C1046   1.452       .  S
C1044      C1047   1.452       .  S
C1045      N1052   1.156       .  T
C1046      N1051   1.157       .  T
C1047      N1049   1.157       .  T
C1048      N1050   1.157       .  T
C1053      C1054   1.409       .  A
C1053      C1058   1.411       .  A
C1054      C1055   1.407       .  A
C1054      C1059   1.452       .  S
C1055      C1056   1.418       .  A
C1055      C1062   1.450       .  S
C1056      C1057   1.417       .  A
C1057      C1058   1.411       .  A
C1057      C1060   1.451       .  S
C1058      C1061   1.450       .  S
C1059      N1066   1.157       .  T
C1060      N1065   1.157       .  T
C1061      N1063   1.157       .  T
C1062      N1064   1.156       .  T
C1067      C1068   1.414       .  A
C1067      C1072   1.402       .  A
C1068      C1069   1.422       .  A
C1068      C1073   1.450       .  S
C1069      C1070   1.429       .  A
C1069      C1076   1.450       .  S
C1070      C1071   1.439       .  A
C1071      C1072   1.412       .  A
C1071      C1074   1.449       .  S
C1072      C1075   1.452       .  S
C1073      N1080   1.157       .  T
C1074      N1079   1.157       .  T
C1075      N1077   1.156       .  T
C1076      N1078   1.158       .  T
C1081      C1082   1.394       .  A
C1081      C1086   1.402       .  A
C1082      C1083   1.411       .  A
C1082      C1087   1.449   1_554  S
C1083      C1084   1.442       .  A
C1083      C1090   1.448       .  S
C1084      C1085   1.431       .  A
C1085      C1086   1.414       .  A
C1085      C1088   1.449       .  S
C1086      C1089   1.449       .  S
C1087      N1094   1.157       .  T
C1088      N1093   1.158       .  T
C1089      N1091   1.157       .  T
C1090      N1092   1.158       .  T
C1095      C1096   1.424       .  A
C1095      C1100   1.421       .  A
C1096      C1097   1.427       .  A
C1096      C1101   1.447       .  S
C1097      C1098   1.418       .  A
C1097      C1104   1.448       .  S
C1098      C1099   1.394       .  A
C1099      C1100   1.399       .  A
C1099      C1102   1.445       .  S
C1100      C1103   1.438   1_554  S
C1101      N1108   1.157       .  T
C1102      N1107   1.156       .  T
C1103      N1105   1.153       .  T
C1104      N1106   1.157       .  T
C1109      C1110   1.425       .  A
C1109      C1114   1.428   1_545  A
C1110      C1111   1.411       .  A
C1110      C1115   1.447       .  S
C1111      C1112   1.411   1_545  A
C1111      C1118   1.452       .  S
C1112      C1113   1.405       .  A
C1113      C1114   1.419       .  A
C1113      C1116   1.448       .  S
C1114      C1117   1.448       .  S
C1115      N1122   1.158       .  T
C1116      N1121   1.157       .  T
C1117      N1119   1.157       .  T
C1118      N1120   1.157       .  T
C1123      C1124   1.420       .  A
C1123      C1128   1.418       .  A
C1124      C1125   1.399       .  A
C1124      C1129   1.452       .  S
C1125      C1126   1.402       .  A
C1125      C1132   1.448       .  S
C1126      C1127   1.405       .  A
C1127      C1128   1.413       .  A
C1127      C1130   1.447       .  S
C1128      C1131   1.445       .  S
C1129      N1136   1.158       .  T
C1130      N1135   1.157   1_565  T
C1131      N1133   1.157       .  T
C1132      N1134   1.156   1_565  T
C1137      C1138   1.416       .  A
C1137      C1142   1.433       .  A
C1138      C1139   1.413       .  A
C1138      C1143   1.449       .  S
C1139      C1140   1.415       .  A
C1139      C1146   1.451       .  S
C1140      C1141   1.404   1_554  A
C1141      C1142   1.413   1_556  A
C1141      C1144   1.451       .  S
C1142      C1145   1.448   1_554  S
C1143      N1150   1.157       .  T
C1144      N1149   1.157       .  T
C1145      N1147   1.158       .  T
C1146      N1148   1.157       .  T
C1151      C1152   1.406       .  A
C1151      C1156   1.405       .  A
C1152      C1153   1.415       .  A
C1152      C1157   1.449   1_556  S
C1153      C1154   1.424       .  A
C1153      C1160   1.450       .  S
C1154      C1155   1.420       .  A
C1155      C1156   1.405       .  A
C1155      C1158   1.451       .  S
C1156      C1159   1.451       .  S
C1157      N1164   1.157       .  T
C1158      N1163   1.157       .  T
C1159      N1161   1.157       .  T
C1160      N1162   1.157       .  T
C1165      C1166   1.421       .  A
C1165      C1170   1.413       .  A
C1166      C1167   1.420       .  A
C1166      C1171   1.445       .  S
C1167      C1168   1.407       .  A
C1167      C1174   1.447       .  S
C1168      C1169   1.397       .  A
C1169      C1170   1.389       .  A
C1169      C1172   1.444       .  S
C1170      C1173   1.450       .  S
C1171      N1178   1.157       .  T
C1172      N1177   1.155   1_455  T
C1173      N1175   1.157       .  T
C1174      N1176   1.157       .  T
C1179      C1180   1.415       .  A
C1179      C1184   1.431       .  A
C1180      C1181   1.418       .  A
C1180      C1185   1.449       .  S
C1181      C1182   1.412       .  A
C1181      C1188   1.449       .  S
C1182      C1183   1.402       .  A
C1183      C1184   1.398       .  A
C1183      C1186   1.458       .  S
C1184      C1187   1.455       .  S
C1185      N1192   1.157   1_545  T
C1186      N1191   1.157       .  T
C1187      N1189   1.158       .  T
C1188      N1190   1.157       .  T
C1193      C1194   1.412       .  A
C1193      C1198   1.400       .  A
C1194      C1195   1.415       .  A
C1194      C1199   1.449       .  S
C1195      C1196   1.415       .  A
C1195      C1202   1.449       .  S
C1196      C1197   1.430       .  A
C1197      C1198   1.401       .  A
C1197      C1200   1.452       .  S
C1198      C1201   1.456       .  S
C1199      N1206   1.157       .  T
C1200      N1205   1.157       .  T
C1201      N1203   1.157       .  T
C1202      N1204   1.157   1_556  T
C1207      C1208   1.413       .  A
C1207      C1212   1.414       .  A
C1208      C1209   1.410       .  A
C1208      C1213   1.452       .  S
C1209      C1210   1.414       .  A
C1209      C1216   1.449       .  S
C1210      C1211   1.415       .  A
C1211      C1212   1.413       .  A
C1211      C1214   1.451       .  S
C1212      C1215   1.451       .  S
C1213      N1220   1.157       .  T
C1214      N1219   1.157       .  T
C1215      N1217   1.157       .  T
C1216      N1218   1.157       .  T
C1221      C1222   1.413       .  A
C1221      C1226   1.415       .  A
C1222      C1223   1.407       .  A
C1222      C1227   1.452       .  S
C1223      C1224   1.413       .  A
C1223      C1230   1.452       .  S
C1224      C1225   1.412       .  A
C1225      C1226   1.409       .  A
C1225      C1228   1.451       .  S
C1226      C1229   1.452       .  S
C1227      N1234   1.157       .  T
C1228      N1233   1.157       .  T
C1229      N1231   1.157       .  T
C1230      N1232   1.157       .  T
C1235      C1236   1.412       .  A
C1235      C1240   1.411       .  A
C1236      C1237   1.406       .  A
C1236      C1241   1.453       .  S
C1237      C1238   1.416       .  A
C1237      C1244   1.453       .  S
C1238      C1239   1.415       .  A
C1239      C1240   1.415       .  A
C1239      C1242   1.449       .  S
C1240      C1243   1.450       .  S
C1241      N1248   1.157       .  T
C1242      N1247   1.157       .  T
C1243      N1245   1.157       .  T
C1244      N1246   1.157       .  T
C1249      C1250   1.409       .  A
C1249      C1254   1.410       .  A
C1250      C1251   1.417   1_556  A
C1250      C1255   1.448   1_556  S
C1251      C1252   1.416   1_554  A
C1251      C1258   1.449       .  S
C1252      C1253   1.412       .  A
C1253      C1254   1.405       .  A
C1253      C1256   1.445       .  S
C1254      C1257   1.456       .  S
C1255      N1262   1.157       .  T
C1256      N1261   1.155       .  T
C1257      N1259   1.157       .  T
C1258      N1260   1.157       .  T
C1263      C1264   1.407       .  A
C1263      C1268   1.416       .  A
C1264      C1265   1.407       .  A
C1264      C1269   1.456       .  S
C1265      C1266   1.427       .  A
C1265      C1272   1.449       .  S
C1266      C1267   1.418       .  A
C1267      C1268   1.426       .  A
C1267      C1270   1.448   1_655  S
C1268      C1271   1.449       .  S
C1269      N1276   1.157       .  T
C1270      N1275   1.157       .  T
C1271      N1273   1.157       .  T
C1272      N1274   1.155       .  T
C1277      C1278   1.418       .  A
C1277      C1282   1.414       .  A
C1278      C1279   1.420       .  A
C1278      C1283   1.450       .  S
C1279      C1280   1.417       .  A
C1279      C1286   1.450       .  S
C1280      C1281   1.419       .  A
C1281      C1282   1.416       .  A
C1281      C1284   1.451       .  S
C1282      C1285   1.450       .  S
C1283      N1290   1.157       .  T
C1284      N1289   1.157       .  T
C1285      N1287   1.157       .  T
C1286      N1288   1.157       .  T
C1291      C1292   1.417       .  A
C1291      C1296   1.418       .  A
C1292      C1293   1.414       .  A
C1292      C1297   1.451       .  S
C1293      C1294   1.413       .  A
C1293      C1300   1.450       .  S
C1294      C1295   1.413       .  A
C1295      C1296   1.418       .  A
C1295      C1298   1.450       .  S
C1296      C1299   1.450       .  S
C1297      N1304   1.157       .  T
C1298      N1303   1.157       .  T
C1299      N1301   1.157       .  T
C1300      N1302   1.157       .  T
C1305      C1306   1.411       .  A
C1305      C1310   1.413       .  A
C1306      C1307   1.410       .  A
C1306      C1311   1.453       .  S
C1307      C1308   1.414   1_565  A
C1307      C1314   1.446       .  S
C1308      C1309   1.413       .  A
C1309      C1310   1.422   1_545  A
C1309      C1312   1.443       .  S
C1310      C1313   1.448   1_565  S
C1311      N1318   1.157       .  T
C1312      N1317   1.156       .  T
C1313      N1315   1.157       .  T
C1314      N1316   1.155       .  T
C1319      C1320   1.411       .  A
C1319      C1324   1.414       .  A
C1320      C1321   1.416       .  A
C1320      C1325   1.452       .  S
C1321      C1322   1.429       .  A
C1321      C1328   1.450       .  S
C1322      C1323   1.433       .  A
C1323      C1324   1.428       .  A
C1323      C1326   1.447       .  S
C1324      C1327   1.451       .  S
C1325      N1332   1.157       .  T
C1326      N1331   1.157       .  T
C1327      N1329   1.157       .  T
C1328      N1330   1.157       .  T
C1333      C1334   1.416       .  A
C1333      C1338   1.424       .  A
C1334      C1335   1.409       .  A
C1334      C1339   1.449       .  S
C1335      C1336   1.420       .  A
C1335      C1342   1.451       .  S
C1336      C1337   1.412       .  A
C1337      C1338   1.413       .  A
C1337      C1340   1.450       .  S
C1338      C1341   1.452       .  S
C1339      N1346   1.157       .  T
C1340      N1345   1.157       .  T
C1341      N1343   1.157       .  T
C1342      N1344   1.158       .  T
C1347      C1348   1.414       .  A
C1347      C1352   1.421       .  A
C1348      C1349   1.401       .  A
C1348      C1353   1.455       .  S
C1349      C1350   1.408       .  A
C1349      C1356   1.443       .  S
C1350      C1351   1.411       .  A
C1351      C1352   1.420       .  A
C1351      C1354   1.449       .  S
C1352      C1355   1.449       .  S
C1353      N1360   1.158       .  T
C1354      N1359   1.157       .  T
C1355      N1357   1.157       .  T
C1356      N1358   1.154       .  T
C1361      C1362   1.419       .  A
C1361      C1366   1.413       .  A
C1362      C1363   1.417       .  A
C1362      C1367   1.448       .  S
C1363      C1364   1.411       .  A
C1363      C1370   1.449       .  S
C1364      C1365   1.415       .  A
C1365      C1366   1.406       .  A
C1365      C1368   1.450       .  S
C1366      C1369   1.453       .  S
C1367      N1374   1.157       .  T
C1368      N1373   1.156       .  T
C1369      N1371   1.157       .  T
C1370      N1372   1.157       .  T
C1375      C1376   1.402       .  A
C1375      C1380   1.414       .  A
C1376      C1377   1.419       .  A
C1376      C1381   1.449       .  S
C1377      C1378   1.437       .  A
C1377      C1384   1.450       .  S
C1378      C1379   1.422       .  A
C1379      C1380   1.401       .  A
C1379      C1382   1.450       .  S
C1380      C1383   1.453       .  S
C1381      N1388   1.158   1_556  T
C1382      N1387   1.158       .  T
C1383      N1385   1.157       .  T
C1384      N1386   1.157       .  T
C1389      C1390   1.414       .  A
C1389      C1394   1.408       .  A
C1390      C1391   1.398       .  A
C1390      C1395   1.448       .  S
C1391      C1392   1.405       .  A
C1391      C1398   1.454       .  S
C1392      C1393   1.417       .  A
C1393      C1394   1.416       .  A
C1393      C1396   1.449       .  S
C1394      C1397   1.449       .  S
C1395      N1402   1.155       .  T
C1396      N1401   1.157       .  T
C1397      N1399   1.157       .  T
C1398      N1400   1.157       .  T
C1403      C1404   1.405       .  A
C1403      C1408   1.417       .  A
C1404      C1405   1.396       .  A
C1404      C1409   1.454       .  S
C1405      C1406   1.417       .  A
C1405      C1412   1.450       .  S
C1406      C1407   1.415       .  A
C1407      C1408   1.421       .  A
C1407      C1410   1.449       .  S
C1408      C1411   1.445       .  S
C1409      N1416   1.158       .  T
C1410      N1415   1.157       .  T
C1411      N1413   1.157       .  T
C1412      N1414   1.156       .  T
C1417      C1418   1.401       .  A
C1417      C1422   1.412       .  A
C1418      C1419   1.399       .  A
C1418      C1423   1.458       .  S
C1419      C1420   1.432       .  A
C1419      C1426   1.451       .  S
C1420      C1421   1.414       .  A
C1421      C1422   1.419       .  A
C1421      C1424   1.447       .  S
C1422      C1425   1.449       .  S
C1423      N1430   1.158       .  T
C1424      N1429   1.157       .  T
C1425      N1427   1.157       .  T
C1426      N1428   1.155       .  T
C1431      C1432   1.418       .  A
C1431      C1436   1.415       .  A
C1432      C1433   1.416       .  A
C1432      C1437   1.450       .  S
C1433      C1434   1.412       .  A
C1433      C1440   1.449       .  S
C1434      C1435   1.411       .  A
C1435      C1436   1.409       .  A
C1435      C1438   1.453       .  S
C1436      C1439   1.446       .  S
C1437      N1444   1.157       .  T
C1438      N1443   1.157       .  T
C1439      N1441   1.155   1_556  T
C1440      N1442   1.157       .  T
C1445      C1446   1.409       .  A
C1445      C1450   1.407       .  A
C1446      C1447   1.409       .  A
C1446      C1451   1.447       .  S
C1447      C1448   1.420       .  A
C1447      C1454   1.453       .  S
C1448      C1449   1.431       .  A
C1449      C1450   1.422       .  A
C1449      C1452   1.448       .  S
C1450      C1453   1.451       .  S
C1451      N1458   1.155       .  T
C1452      N1457   1.157       .  T
C1453      N1455   1.157       .  T
C1454      N1456   1.158       .  T
C1459      C1460   1.397       .  A
C1459      C1464   1.414       .  A
C1460      C1461   1.403       .  A
C1460      C1465   1.449       .  S
C1461      C1462   1.433       .  A
C1461      C1468   1.453       .  S
C1462      C1463   1.419       .  A
C1463      C1464   1.412       .  A
C1463      C1466   1.450       .  S
C1464      C1467   1.451       .  S
C1465      N1472   1.156       .  T
C1466      N1471   1.158       .  T
C1467      N1469   1.157       .  T
C1468      N1470   1.158       .  T
C1473      C1474   1.416       .  A
C1473      C1478   1.425       .  A
C1474      C1475   1.425       .  A
C1474      C1479   1.449       .  S
C1475      C1476   1.419       .  A
C1475      C1482   1.449       .  S
C1476      C1477   1.410       .  A
C1477      C1478   1.409       .  A
C1477      C1480   1.455       .  S
C1478      C1481   1.451       .  S
C1479      N1486   1.157       .  T
C1480      N1485   1.158       .  T
C1481      N1483   1.156       .  T
C1482      N1484   1.157       .  T
C1487      C1488   1.412       .  A
C1487      C1492   1.421       .  A
C1488      C1489   1.421       .  A
C1488      C1493   1.451       .  S
C1489      C1490   1.433       .  A
C1489      C1496   1.449       .  S
C1490      C1491   1.408       .  A
C1491      C1492   1.393       .  A
C1491      C1494   1.454       .  S
C1492      C1495   1.451       .  S
C1493      N1500   1.158       .  T
C1494      N1499   1.158       .  T
C1495      N1497   1.157       .  T
C1496      N1498   1.157       .  T
C1501      C1502   1.410       .  A
C1501      C1506   1.402       .  A
C1502      C1503   1.406       .  A
C1502      C1507   1.452       .  S
C1503      C1504   1.421       .  A
C1503      C1510   1.449       .  S
C1504      C1505   1.433       .  A
C1505      C1506   1.410       .  A
C1505      C1508   1.447       .  S
C1506      C1509   1.451       .  S
C1507      N1514   1.157       .  T
C1508      N1513   1.157       .  T
C1509      N1511   1.157       .  T
C1510      N1512   1.157       .  T
C1515      C1516   1.407       .  A
C1515      C1520   1.414       .  A
C1516      C1517   1.396       .  A
C1516      C1521   1.445       .  S
C1517      C1518   1.410       .  A
C1517      C1524   1.452       .  S
C1518      C1519   1.421       .  A
C1519      C1520   1.425       .  A
C1519      C1522   1.448       .  S
C1520      C1523   1.448       .  S
C1521      N1528   1.154       .  T
C1522      N1527   1.157       .  T
C1523      N1525   1.157       .  T
C1524      N1526   1.158       .  T
C1529      C1530   1.417       .  A
C1529      C1534   1.412       .  A
C1530      C1531   1.407       .  A
C1530      C1535   1.450       .  S
C1531      C1532   1.414       .  A
C1531      C1538   1.453       .  S
C1532      C1533   1.422       .  A
C1533      C1534   1.424       .  A
C1533      C1536   1.449       .  S
C1534      C1537   1.447       .  S
C1535      N1542   1.156       .  T
C1536      N1541   1.157       .  T
C1537      N1539   1.157       .  T
C1538      N1540   1.157       .  T
C1543      C1544   1.415       .  A
C1543      C1548   1.408       .  A
C1544      C1545   1.410       .  A
C1544      C1549   1.451       .  S
C1545      C1546   1.410       .  A
C1545      C1552   1.448       .  S
C1546      C1547   1.417       .  A
C1547      C1548   1.405       .  A
C1547      C1550   1.454       .  S
C1548      C1551   1.449   1_455  S
C1549      N1556   1.157       .  T
C1550      N1555   1.157       .  T
C1551      N1553   1.155       .  T
C1552      N1554   1.157       .  T
C1557      C1558   1.427       .  A
C1557      C1562   1.415       .  A
C1558      C1559   1.397       .  A
C1558      C1563   1.447       .  S
C1559      C1560   1.399       .  A
C1559      C1566   1.458       .  S
C1560      C1561   1.411       .  A
C1561      C1562   1.416       .  A
C1561      C1564   1.449       .  S
C1562      C1565   1.449       .  S
C1563      N1570   1.155       .  T
C1564      N1569   1.157       .  T
C1565      N1567   1.157       .  T
C1566      N1568   1.157       .  T
C1571      C1572   1.423       .  A
C1571      C1576   1.431       .  A
C1572      C1573   1.409       .  A
C1572      C1577   1.448       .  S
C1573      C1574   1.415       .  A
C1573      C1580   1.451       .  S
C1574      C1575   1.410       .  A
C1575      C1576   1.423       .  A
C1575      C1578   1.445       .  S
C1576      C1579   1.452       .  S
C1577      N1584   1.157       .  T
C1578      N1583   1.156       .  T
C1579      N1581   1.158       .  T
C1580      N1582   1.157       .  T
C1585      C1586   1.413       .  A
C1585      C1590   1.414       .  A
C1586      C1587   1.404       .  A
C1586      C1591   1.448       .  S
C1587      C1588   1.409       .  A
C1587      C1594   1.454       .  S
C1588      C1589   1.414       .  A
C1589      C1590   1.422       .  A
C1589      C1592   1.448       .  S
C1590      C1593   1.449       .  S
C1591      N1598   1.156   1_545  T
C1592      N1597   1.157       .  T
C1593      N1595   1.157       .  T
C1594      N1596   1.157       .  T
C1599      C1600   1.399       .  A
C1599      C1604   1.414       .  A
C1600      C1601   1.392       .  A
C1600      C1605   1.459       .  S
C1601      C1602   1.425       .  A
C1601      C1608   1.448   1_565  S
C1602      C1603   1.413       .  A
C1603      C1604   1.417       .  A
C1603      C1606   1.448       .  S
C1604      C1607   1.447       .  S
C1605      N1612   1.158   1_565  T
C1606      N1611   1.157       .  T
C1607      N1609   1.157       .  T
C1608      N1610   1.157       .  T
C1613      C1614   1.426       .  A
C1613      C1618   1.416       .  A
C1614      C1615   1.402       .  A
C1614      C1619   1.454   1_545  S
C1615      C1616   1.409       .  A
C1615      C1622   1.457       .  S
C1616      C1617   1.415       .  A
C1617      C1618   1.423       .  A
C1617      C1620   1.448       .  S
C1618      C1621   1.448       .  S
C1619      N1626   1.158       .  T
C1620      N1625   1.157       .  T
C1621      N1623   1.157       .  T
C1622      N1624   1.158   1_545  T
C1627      C1628   1.410       .  A
C1627      C1632   1.414       .  A
C1628      C1629   1.403       .  A
C1628      C1633   1.441       .  S
C1629      C1630   1.409       .  A
C1629      C1636   1.455       .  S
C1630      C1631   1.414       .  A
C1631      C1632   1.418       .  A
C1631      C1634   1.448       .  S
C1632      C1635   1.450       .  S
C1633      N1640   1.153   1_565  T
C1634      N1639   1.157       .  T
C1635      N1637   1.157       .  T
C1636      N1638   1.157       .  T
C1641      C1642   1.412       .  A
C1641      C1646   1.413       .  A
C1642      C1643   1.412       .  A
C1642      C1647   1.450       .  S
C1643      C1644   1.412       .  A
C1643      C1650   1.449       .  S
C1644      C1645   1.408       .  A
C1645      C1646   1.406       .  A
C1645      C1648   1.455       .  S
C1646      C1649   1.444   1_545  S
C1647      N1654   1.157       .  T
C1648      N1653   1.157       .  T
C1649      N1651   1.155       .  T
C1650      N1652   1.157       .  T
C1655      C1656   1.429       .  A
C1655      C1660   1.414       .  A
C1656      C1657   1.401       .  A
C1656      C1661   1.452       .  S
C1657      C1658   1.401       .  A
C1657      C1664   1.456       .  S
C1658      C1659   1.416       .  A
C1659      C1660   1.422       .  A
C1659      C1662   1.449       .  S
C1660      C1663   1.448       .  S
C1661      N1668   1.157   1_565  T
C1662      N1667   1.157       .  T
C1663      N1665   1.157       .  T
C1664      N1666   1.157       .  T
