geometry optimzed in LAMMPS
_audit_creation_date              2020-11-30 
_audit_creation_method            'lammps2cif' 
_symmetry_space_group_name_H-M    'P1' 
_symmetry_Int_Tables_number       1 
_symmetry_cell_setting            triclinic 
loop_ 
_symmetry_equiv_pos_as_xyz 
  x,y,z 
_cell_length_a                    37.31242841928533 
_cell_length_b                    37.17439071739009 
_cell_length_c                    37.25528580066822 
_cell_angle_alpha                 90.00103700779886 
_cell_angle_beta                  90.34110645766724 
_cell_angle_gamma                 89.74180486347107 
loop_ 
_atom_site_label 
_atom_site_type_symbol 
_atom_site_fract_x 
_atom_site_fract_y 
_atom_site_fract_z 
_atom_site_charge 
O1          O  0.73770909  0.68368361  0.24719505    -0.88530
C2          C  0.74608597  0.75824650  0.17148866     0.87500
Mg3        Mg  0.70065691  0.68948808  0.28897221     1.58150
O4          O  0.81490773  0.75849845  0.23468325    -0.88260
O5          O  0.79609327  0.67795357  0.24229196    -0.75590
C6          C  0.71562498  0.85820733  0.34323142     0.92550
O7          O  0.67750369  0.73347601  0.21176868    -0.75400
O8          O  0.69393232  0.83201810  0.34419020    -0.82910
Mg9        Mg  0.71782003  0.68982720  0.19373966     1.57960
C10         C  0.85643695  0.84605320  0.28116422     0.92480
O11         O  0.75712495  0.64438711  0.17547258    -0.81170
H12         H  0.85482191  0.73284366  0.26027572    -0.06510
C13         C  0.73738032  0.83231482  0.24856184     0.87410
O14         O  0.74562361  0.71097469  0.32523683    -0.75680
O15         O  0.75684768  0.73062707  0.18690365    -0.88440
O16         O  0.84834626  0.83147780  0.25132488    -0.81250
C17         C  0.83943065  0.78380738  0.14363933     0.92590
C18         C  0.78863321  0.64131927  0.16239092     0.92440
Mg19       Mg  0.78615426  0.81040381  0.31053789     1.57950
O20         O  0.74728931  0.85525662  0.33055773    -0.81180
O21         O  0.82648118  0.76698410  0.29197650    -0.75420
O22         O  0.82777682  0.75210738  0.14907553    -0.81260
O23         O  0.67138914  0.64961461  0.19948066    -0.82970
O24         O  0.67617543  0.74887978  0.35438032    -0.81290
C25         C  0.83311692  0.75214025  0.26191483     0.86880
O26         O  0.74709728  0.76967599  0.31671628    -0.88430
O27         O  0.76583384  0.81733671  0.25727699    -0.88540
O28         O  0.70747166  0.82294034  0.26167560    -0.75590
Mg29       Mg  0.81140025  0.71612908  0.19665463     1.57970
O30         O  0.84076442  0.80722746  0.16840566    -0.82970
H31         H  0.76609123  0.64912616  0.27718208    -0.06690
O32         O  0.68859971  0.74191902  0.26925699    -0.88240
H33         H  0.64898552  0.76765657  0.24326373    -0.06520
H34         H  0.78006966  0.74439324  0.35094572    -0.06690
C35         C  0.67064112  0.74828918  0.24182334     0.86860
C36         C  0.76631388  0.66914538  0.25612924     0.87440
C37         C  0.75823178  0.74206501  0.33188804     0.87490
H38         H  0.73781488  0.85301103  0.22817371    -0.06670
O39         O  0.75827829  0.78938607  0.17885900    -0.75700
Mg40       Mg  0.69227862  0.78436845  0.30697519     1.58000
H41         H  0.72489237  0.75591914  0.15171212    -0.06690
C42         C  0.64734119  0.65430937  0.22317210     0.92480
O43         O  0.66355241  0.69300203  0.33768572    -0.82930
C44         C  0.66551727  0.71726852  0.36172305     0.92540
O45         O  0.80960473  0.66802104  0.15951644    -0.82910
Mg46       Mg  0.80298735  0.81099877  0.21565862     1.58180
O47         O  0.65539328  0.66883693  0.25312451    -0.81250
O48         O  0.83232459  0.85080470  0.30477408    -0.82940
O49         O  0.77638946  0.28316931  0.69868702    -0.88530
C50         C  0.76848947  0.31019468  0.80278810     0.87500
Mg51       Mg  0.73087125  0.27150761  0.66664678     1.58150
O52         O  0.80036485  0.22415052  0.78757346    -0.88260
O53         O  0.82621568  0.25618562  0.71562230    -0.75590
C54         C  0.63519399  0.16534411  0.76734332     0.92550
O55         O  0.71461424  0.32338312  0.74023417    -0.75400
O56         O  0.63798519  0.17559796  0.73511707    -0.82910
Mg57       Mg  0.77478309  0.33119703  0.72899508     1.57960
C58         C  0.76676955  0.13606658  0.83969487     0.92480
O59         O  0.83501396  0.34038292  0.71585628    -0.81170
H60         H  0.83536834  0.19254966  0.76207753    -0.06510
C61         C  0.69481736  0.23195304  0.80899562     0.87410
O62         O  0.74325822  0.21106890  0.67497560    -0.75680
O63         O  0.78585631  0.30138055  0.77587040    -0.88440
O64         O  0.78220943  0.16621871  0.84499624    -0.81250
C65         C  0.83401728  0.27159935  0.86610407     0.92590
C66         C  0.86545373  0.33360308  0.73020715     0.92440
Mg67       Mg  0.72442347  0.16692603  0.77358919     1.57950
O68         O  0.66314476  0.16147424  0.78682905    -0.81180
O69         O  0.78481469  0.17249571  0.76332087    -0.75420
O70         O  0.84116476  0.28466582  0.83532605    -0.81260
O71         O  0.75943820  0.36502328  0.68156047    -0.82970
O72         O  0.66241261  0.21119778  0.66387799    -0.81290
C73         C  0.80803393  0.19621269  0.77120582     0.86880
O74         O  0.71668540  0.19686486  0.72547428    -0.88430
O75         O  0.72306562  0.21555673  0.80256588    -0.88540
O76         O  0.67186529  0.23884758  0.78442394    -0.75590
Mg77       Mg  0.83272823  0.26915615  0.77558412     1.57970
O78         O  0.81534734  0.24328141  0.86981758    -0.82970
H79         H  0.80798301  0.25686686  0.66420200    -0.06690
O80         O  0.69836711  0.27320969  0.71338365    -0.88240
H81         H  0.66391257  0.30397692  0.74062150    -0.06520
H82         H  0.74295950  0.16053168  0.69577454    -0.06690
C83         C  0.69102690  0.30033542  0.73130580     0.86860
C84         C  0.80371966  0.26556491  0.69155282     0.87440
C85         C  0.73431673  0.18817676  0.69871009     0.87490
H86         H  0.68963306  0.24089883  0.83610578    -0.06670
O87         O  0.75822684  0.28730572  0.82593795    -0.75700
Mg88       Mg  0.66858567  0.22580101  0.72352779     1.58000
H89         H  0.76075230  0.33805862  0.80608375    -0.06690
C90         C  0.73067006  0.36224171  0.66340513     0.92480
O91         O  0.68544502  0.25472277  0.63027802    -0.82930
C92         C  0.66821820  0.22548017  0.63347788     0.92540
O93         O  0.86866356  0.31458457  0.75845669    -0.82910
Mg94       Mg  0.76887119  0.22690309  0.83457259     1.58180
O95         O  0.71617730  0.33185327  0.65698317    -0.81250
O96         O  0.73748249  0.13372521  0.82229150    -0.82940
O97         O  0.68558744  0.75288689  0.76807480    -0.88530
C98         C  0.75950233  0.82854095  0.75053393     0.87500
Mg99       Mg  0.69282980  0.71253737  0.80750177     1.58150
O100        O  0.75497887  0.76462779  0.68335838    -0.88260
O101        O  0.67717353  0.75575030  0.70943197    -0.75590
C102        C  0.86257286  0.66414320  0.78288450     0.92550
O103        O  0.73959449  0.79099946  0.82307918    -0.75400
O104        O  0.83849529  0.66123630  0.80673627    -0.82910
Mg105      Mg  0.69437493  0.80719752  0.78434100     1.57960
C106        C  0.83991725  0.71449070  0.64110926     0.92480
O107        O  0.64725377  0.82362746  0.74840277    -0.81170
H108        H  0.72546176  0.73600261  0.64880600    -0.06510
C109        C  0.82991644  0.75572613  0.75883889     0.87410
O110        O  0.71230653  0.67459410  0.76321549    -0.75680
O111        O  0.73189510  0.81190422  0.74244294    -0.88440
O112        O  0.82617437  0.74589078  0.64454520    -0.81250
C113        C  0.77784299  0.85608556  0.65627109     0.92590
C114        C  0.63939542  0.83399875  0.71676316     0.92440
Mg115      Mg  0.80720164  0.69020375  0.71545190     1.57950
O116        O  0.85508588  0.67459276  0.75114208    -0.81180
O117        O  0.76096339  0.70602941  0.67764950    -0.75420
O118        O  0.74702233  0.84976152  0.66958804    -0.81260
O119        O  0.65726164  0.80390507  0.83177547    -0.82970
O120        O  0.75522272  0.64849357  0.83066686    -0.81290
C121        C  0.74654912  0.73587597  0.66884570     0.86880
O122        O  0.76995344  0.68529929  0.75745962    -0.88430
O123        O  0.81540967  0.74457556  0.73091274    -0.88540
O124        O  0.82312308  0.74282845  0.78974085    -0.75590
Mg125      Mg  0.71274435  0.80173197  0.68922563     1.57970
O126        O  0.80087232  0.83104103  0.65199685    -0.82970
H127        H  0.65124081  0.72088617  0.74199078    -0.06690
O128        O  0.74548717  0.73256547  0.81659683    -0.88240
H129        H  0.77342729  0.76036289  0.85313943    -0.06520
H130        H  0.74446020  0.64810911  0.72829842    -0.06690
C131        C  0.75329228  0.76094764  0.83214814     0.86860
C132        C  0.67035550  0.74258192  0.74020815     0.87440
C133        C  0.74263441  0.66833626  0.74907751     0.87490
H134        H  0.84835847  0.77799374  0.75697275    -0.06670
O135        O  0.78945730  0.82252358  0.73543327    -0.75700
Mg136      Mg  0.78863272  0.69638344  0.81054654     1.58000
H137        H  0.75821989  0.84844573  0.77166018    -0.06690
C138        C  0.65890949  0.78127274  0.85730571     0.92480
O139        O  0.69977546  0.66490682  0.84554146    -0.82930
C140        C  0.72416327  0.64093456  0.84264803     0.92540
O141        O  0.66342272  0.83726523  0.69294101    -0.82910
Mg142      Mg  0.80777355  0.78408970  0.69080039     1.58180
O143        O  0.67197944  0.74964718  0.85334075    -0.81250
O144        O  0.84389268  0.69325422  0.66757293    -0.82940
C145        C  0.49225037  0.36613751  0.30857771     0.02950
C146        C  0.46473489  0.36635582  0.33404577    -0.13200
C147        C  0.42880633  0.37244575  0.32317677     0.00450
C148        C  0.42128626  0.37942616  0.28651031    -0.11730
C149        C  0.44908073  0.37877779  0.26124823     0.02940
C150        C  0.48393195  0.37121872  0.27245460    -0.11150
H151        H  0.47134518  0.36197887  0.36205953     0.08530
H152        H  0.39421392  0.38536039  0.27763383     0.06060
H153        H  0.50530552  0.37094280  0.25279532     0.05910
C154        C  0.37514008  0.30114255  0.49550187     0.02950
C155        C  0.37374619  0.32719095  0.46821999    -0.13200
C156        C  0.37351763  0.31655439  0.43187371     0.00450
C157        C  0.37444252  0.27962392  0.42316319    -0.11730
C158        C  0.37570308  0.25367679  0.45056279     0.02940
C159        C  0.37636438  0.26479867  0.48631728    -0.11150
H160        H  0.37268184  0.35547158  0.47521507     0.08530
H161        H  0.37413269  0.27116630  0.39533168     0.06060
H162        H  0.37734054  0.24471951  0.50745363     0.05910
C163        C  0.39948398  0.37149685  0.35015194     0.02950
C164        C  0.39954448  0.34495830  0.37711852    -0.13200
C165        C  0.37245219  0.34401185  0.40307949     0.00450
C166        C  0.34452808  0.36941256  0.40161796    -0.11730
C167        C  0.34361846  0.39576412  0.37458011     0.02940
C168        C  0.37136661  0.39689322  0.34919572    -0.11150
H169        H  0.42077815  0.32498592  0.37807571     0.08530
H170        H  0.32344540  0.36859330  0.42149109     0.06060
H171        H  0.37091289  0.41750993  0.32864242     0.05910
C172        C  0.29137294  0.48362328  0.36779748     0.02950
C173        C  0.25643166  0.47049016  0.36550019    -0.13200
C174        C  0.24918163  0.43398522  0.36964231     0.00450
C175        C  0.27767006  0.40938639  0.37264272    -0.11730
C176        C  0.31338020  0.42174750  0.37241498     0.02940
C177        C  0.32002533  0.45907671  0.37096481    -0.11150
H178        H  0.23421851  0.48932033  0.36320166     0.08530
H179        H  0.27203631  0.38101115  0.37591896     0.06060
H180        H  0.34725597  0.46889579  0.37285237     0.05910
O181        O  0.93277289  0.48295996  0.50444172    -0.88530
C182        C  0.00990828  0.49571767  0.57749158     0.87500
Mg183      Mg  0.93778561  0.44284349  0.46447571     1.58150
O184        O  0.00881471  0.56326494  0.51306979    -0.88260
O185        O  0.92805828  0.54203608  0.50626075    -0.75590
C186        C  0.10524853  0.45712947  0.40693696     0.92550
O187        O  0.98613142  0.42668651  0.54073070    -0.75400
O188        O  0.07868305  0.43591737  0.40498764    -0.82910
Mg189      Mg  0.94222144  0.46633988  0.55833904     1.57960
C190        C  0.09576763  0.60116379  0.46347184     0.92480
O191        O  0.89699264  0.50511853  0.57722021    -0.81170
H192        H  0.98196179  0.60108482  0.48560289    -0.06510
C193        C  0.08042154  0.48395156  0.50021056     0.87410
O194        O  0.95772811  0.48629582  0.42517010    -0.75680
O195        O  0.98215904  0.50616685  0.56210095    -0.88440
O196        O  0.08340417  0.59697050  0.49517100    -0.81250
C197        C  0.03521122  0.58638519  0.60506551     0.92590
C198        C  0.89336886  0.53741197  0.58846117     0.92440
Mg199      Mg  0.05699425  0.52904604  0.43699280     1.57950
O200        O  0.10229446  0.48918740  0.41915500    -0.81180
O201        O  0.01407416  0.56985002  0.45463427    -0.75420
O202        O  0.00322479  0.57752551  0.59711948    -0.81260
O203        O  0.90320244  0.41944042  0.55589278    -0.82970
O204        O  0.99481768  0.41590862  0.39748625    -0.81290
C205        C  0.00117071  0.57923130  0.48479873     0.86880
O206        O  0.01640343  0.48923226  0.43202036    -0.88430
O207        O  0.06574890  0.51241572  0.49085266    -0.88540
O208        O  0.07123416  0.45360196  0.48739191    -0.75590
Mg209      Mg  0.96673904  0.56034195  0.55079001     1.57970
O210        O  0.05928986  0.58818033  0.58099022    -0.82970
H211        H  0.89764995  0.51027360  0.47403240    -0.06690
O212        O  0.99120516  0.43323116  0.48228498    -0.88240
H213        H  0.02096250  0.39811578  0.51017108    -0.06520
H214        H  0.98979498  0.51856784  0.39545938    -0.06690
C215        C  0.00007820  0.41836595  0.51074494     0.86860
C216        C  0.91832983  0.51140983  0.49445620     0.87440
C217        C  0.98834719  0.49857197  0.41647524     0.87490
H218        H  0.10103476  0.48482663  0.52071635    -0.06670
O219        O  0.04082932  0.50753139  0.56959115    -0.75700
Mg220      Mg  0.03202476  0.43530964  0.44332953     1.58000
H221        H  0.00786562  0.47492694  0.59766307    -0.06690
C222        C  0.90611999  0.39310537  0.53421263     0.92480
O223        O  0.94029135  0.40338137  0.41800861    -0.82930
C224        C  0.96315051  0.40392779  0.39284791     0.92540
O225        O  0.91901969  0.55980679  0.58822672    -0.82910
Mg226      Mg  0.06176154  0.55130518  0.53197583     1.58180
O227        O  0.91881666  0.39717758  0.50267829    -0.81250
O228        O  0.09645833  0.57564836  0.44060224    -0.82940
O229        O  0.52306076  0.05077409  0.53462604    -0.88530
C230        C  0.51729504  0.94578403  0.55690500     0.87500
Mg231      Mg  0.47573617  0.08006107  0.52271252     1.58150
O232        O  0.55385713  0.96550185  0.47397121    -0.88260
O233        O  0.57502564  0.03663453  0.51085492    -0.75590
C234        C  0.38769349  0.97238263  0.41108262     0.92550
O235        O  0.46271480  0.00643845  0.57459678    -0.75400
O236        O  0.38299898  0.00076863  0.42958041    -0.82910
Mg237      Mg  0.52249813  0.01993132  0.58201580     1.57960
C238        C  0.52847147  0.91740192  0.38252399     0.92480
O239        O  0.58265105  0.03637766  0.58997786    -0.81170
H240        H  0.58843282  0.99358294  0.44424412    -0.06510
C241        C  0.45130024  0.93627558  0.47821604     0.87410
O242        O  0.48869210  0.07359800  0.46287431    -0.75680
O243        O  0.53413551  0.97372354  0.55046613    -0.88440
O244        O  0.54261407  0.91118775  0.41317389    -0.81250
C245        C  0.58704739  0.88529865  0.52058511     0.92590
C246        C  0.61254452  0.02037740  0.58500778     0.92440
Mg247      Mg  0.47840779  0.97721515  0.41433407     1.57950
O248        O  0.41893118  0.95994762  0.40440389    -0.81180
O249        O  0.53801852  0.99191284  0.42340174    -0.75420
O250        O  0.59082231  0.91542849  0.53638662    -0.81260
O251        O  0.50544630  0.06680973  0.61625037    -0.82970
O252        O  0.40457674  0.07873657  0.46256829    -0.81290
C253        C  0.56138666  0.98370931  0.44716395     0.86880
O254        O  0.46426115  0.02256337  0.44566030    -0.88430
O255        O  0.47819195  0.94542862  0.46117038    -0.88540
O256        O  0.42740793  0.95878095  0.48780914    -0.75590
Mg257      Mg  0.58258732  0.97570925  0.52208207     1.57970
O258        O  0.57352366  0.88323630  0.48928698    -0.82970
H259        H  0.55431866  0.08729364  0.51090990    -0.06690
O260        O  0.44709074  0.03114268  0.52312184    -0.88240
H261        H  0.41244249  0.00426773  0.55375455    -0.06520
H262        H  0.48968449  0.05516301  0.41165422    -0.06690
C263        C  0.43946058  0.01399950  0.55057574     0.86860
C264        C  0.55081711  0.05953534  0.51877492     0.87440
C265        C  0.48072990  0.05061449  0.43879890     0.87490
H266        H  0.44865760  0.90848042  0.48627195    -0.06670
O267        O  0.51103604  0.92219765  0.53288270    -0.75700
Mg268      Mg  0.41688821  0.01868037  0.47646531     1.58000
H269        H  0.50680852  0.94169133  0.58354081    -0.06690
C270        C  0.47485019  0.08181650  0.61333589     0.92480
O271        O  0.42774237  0.11313938  0.50585355    -0.82930
C272        C  0.40943336  0.10939756  0.47719923     0.92540
O273        O  0.61390764  0.98908478  0.57156725    -0.82910
Mg274      Mg  0.52557047  0.91648569  0.47292930     1.58180
O275        O  0.46010729  0.08727018  0.58279505    -0.81250
O276        O  0.49750674  0.93157877  0.37945170    -0.82940
C277        C  0.62735003  0.65127625  0.59965159     0.02950
C278        C  0.59934575  0.64907278  0.62456987    -0.13200
C279        C  0.59836322  0.62113199  0.64989505     0.00450
C280        C  0.62583401  0.59501662  0.64995833    -0.11730
C281        C  0.65415111  0.59679313  0.62523785     0.02940
C282        C  0.65464338  0.62506458  0.60019250    -0.11150
H283        H  0.57836799  0.66932384  0.62438981     0.08530
H284        H  0.62532462  0.57343270  0.66948599     0.06060
H285        H  0.67631040  0.62665322  0.58103064     0.05910
C286        C  0.55134061  0.61397456  0.73957674     0.02950
C287        C  0.57820632  0.61386120  0.71350057    -0.13200
C288        C  0.56941903  0.62007012  0.67712915     0.00450
C289        C  0.53322612  0.62668272  0.66740585    -0.11730
C290        C  0.50638945  0.62627723  0.69372150     0.02940
C291        C  0.51574552  0.61954873  0.72939111    -0.11150
H292        H  0.60580665  0.60948738  0.72163194     0.08530
H293        H  0.52601606  0.63248570  0.63980050     0.06060
H294        H  0.49506524  0.61969946  0.74976462     0.05910
C295        C  0.62060200  0.74424494  0.55762600     0.02950
C296        C  0.62688561  0.73596167  0.52177570    -0.13200
C297        C  0.63464863  0.70094100  0.51106920     0.00450
C298        C  0.63529482  0.67321667  0.53651537    -0.11730
C299        C  0.62785369  0.68080575  0.57286376     0.02940
C300        C  0.62058821  0.71667409  0.58332801    -0.11150
H301        H  0.62639044  0.75730621  0.50187852     0.08530
H302        H  0.64137545  0.64600777  0.52800264     0.06060
H303        H  0.61497051  0.72310803  0.61109165     0.05910
C304        C  0.74680197  0.55334305  0.62268255     0.02950
C305        C  0.73777212  0.51708671  0.62517719    -0.13200
C306        C  0.70219163  0.50629586  0.62812548     0.00450
C307        C  0.67478552  0.53229151  0.62834084    -0.11730
C308        C  0.68319465  0.56919053  0.62550168     0.02940
C309        C  0.71950883  0.57952780  0.62276661    -0.11150
H310        H  0.75886064  0.49687725  0.62510192     0.08530
H311        H  0.64717624  0.52377770  0.63071402     0.06060
H312        H  0.72655533  0.60769154  0.62073612     0.05910
O313        O  0.45287516  0.46609352  0.02753065    -0.88530
C314        C  0.55573489  0.43612918  0.01984944     0.87500
Mg315      Mg  0.42207231  0.47447483  0.97994044     1.58150
O316        O  0.54118465  0.52295873  0.05101539    -0.88260
O317        O  0.46928574  0.49178354  0.07797863    -0.75590
C318        C  0.52266161  0.58025733  0.88302652     0.92550
O319        O  0.49278038  0.42054771  0.96789420    -0.75400
O320        O  0.49289706  0.56384343  0.88157509    -0.82910
Mg321      Mg  0.48086975  0.41688436  0.02883747     1.57960
C322        C  0.59296713  0.60969606  0.01594664     0.92480
O323        O  0.46726001  0.41199297  0.08942159    -0.81170
H324        H  0.51728584  0.55608366  0.08577520    -0.06510
C325        C  0.56312818  0.51348057  0.94509199     0.87410
O326        O  0.42797685  0.53578230  0.98981709    -0.75680
O327        O  0.52927534  0.44525229  0.03773445    -0.88440
O328        O  0.59838016  0.57945804  0.03123454    -0.81250
C329        C  0.61977600  0.47707688  0.08603609     0.92590
C330        C  0.48379271  0.41734853  0.11895694     0.92440
Mg331      Mg  0.52661709  0.57934791  0.97360801     1.57950
O332        O  0.53878294  0.58624744  0.91272503    -0.81180
O333        O  0.51646977  0.57413992  0.03435959    -0.75420
O334        O  0.58939648  0.46348601  0.09337854    -0.81260
O335        O  0.43054615  0.38621004  0.01698975    -0.82970
O336        O  0.41845484  0.53396447  0.91208878    -0.81290
C337        C  0.52512077  0.55123738  0.05832387     0.86880
O338        O  0.47922287  0.54962457  0.96447200    -0.88430
O339        O  0.55584508  0.53043327  0.97276835    -0.88540
O340        O  0.53917188  0.50510141  0.92215559    -0.75590
Mg341      Mg  0.52964017  0.47813371  0.08404894     1.57970
O342        O  0.62316565  0.50379222  0.06509439    -0.82970
H343        H  0.41828499  0.49310622  0.05848510    -0.06690
O344        O  0.46974813  0.47237157  0.95061317    -0.88240
H345        H  0.49476205  0.43903599  0.91665191    -0.06520
H346        H  0.44810582  0.58649966  0.98830996    -0.06690
C347        C  0.48589319  0.44395484  0.94376501     0.86860
C348        C  0.44549735  0.48378694  0.05469432     0.87440
C349        C  0.45176263  0.55860300  0.98091290     0.87490
H350        H  0.59044042  0.50482359  0.94069323    -0.06670
O351        O  0.57883888  0.45876090  0.00906306    -0.75700
Mg352      Mg  0.47882363  0.51781429  0.91754434     1.58000
H353        H  0.55870522  0.40823488  0.01219896    -0.06690
C354        C  0.42011192  0.38507021  0.98458828     0.92480
O355        O  0.38922603  0.48598740  0.93067509    -0.82930
C356        C  0.38914574  0.51757396  0.91786812     0.92540
O357        O  0.51448355  0.43201131  0.11979585    -0.82910
Mg358      Mg  0.58772304  0.51924802  0.01875623     1.58180
O359        O  0.41620560  0.41385477  0.96654199    -0.81250
O360        O  0.57531582  0.61238100  0.98678301    -0.82940
O361        O  0.47278455  0.44719585  0.53479948    -0.88530
C362        C  0.48117291  0.55110756  0.56153193     0.87500
Mg363      Mg  0.51963130  0.41536849  0.52661221     1.58150
O364        O  0.44770705  0.53228852  0.47606936    -0.88260
O365        O  0.42096937  0.46275159  0.51110985    -0.75590
C366        C  0.61397030  0.51813292  0.42035185     0.92550
O367        O  0.53352808  0.48635484  0.58008919    -0.75400
O368        O  0.61496963  0.48709225  0.43451933    -0.82910
Mg369      Mg  0.47237279  0.47520219  0.58343332     1.57960
C370        C  0.47853510  0.58208659  0.38651601     0.92480
O371        O  0.41139947  0.46204818  0.58793125    -0.81170
H372        H  0.41239814  0.50683574  0.44444983    -0.06510
C373        C  0.55156437  0.55794212  0.48441653     0.87410
O374        O  0.50905482  0.42099938  0.46583151    -0.75680
O375        O  0.46428176  0.52350773  0.55370430    -0.88440
O376        O  0.46373414  0.58771709  0.41669959    -0.81250
C377        C  0.41606605  0.61364733  0.52024562     0.92590
C378        C  0.38269781  0.48024590  0.58342491     0.92440
Mg379      Mg  0.52375368  0.51867204  0.41968780     1.57950
O380        O  0.58418664  0.53397387  0.41398446    -0.81180
O381        O  0.46331094  0.50650400  0.42534684    -0.75420
O382        O  0.41170162  0.58465834  0.53780714    -0.81260
O383        O  0.48338632  0.42403072  0.61385899    -0.82970
O384        O  0.59049506  0.41316953  0.46939162    -0.81290
C385        C  0.43983757  0.51520289  0.44854721     0.86880
O386        O  0.53421148  0.47224714  0.45120093    -0.88430
O387        O  0.52419126  0.54992897  0.46721231    -0.88540
O388        O  0.57489232  0.53444420  0.49344551    -0.75590
Mg389      Mg  0.41676527  0.52393537  0.52307867     1.57970
O390        O  0.42804424  0.61283089  0.48853318    -0.82970
H391        H  0.44067680  0.41163377  0.51031335    -0.06690
O392        O  0.55009890  0.46316349  0.52841868    -0.88240
H393        H  0.58481496  0.48711575  0.56186458    -0.06520
H394        H  0.51080821  0.44023580  0.41483220    -0.06690
C395        C  0.55743716  0.47904994  0.55680421     0.86860
C396        C  0.44483420  0.43920522  0.51855161     0.87440
C397        C  0.51811543  0.44439244  0.44265443     0.87490
H398        H  0.55540809  0.58555718  0.49262403    -0.06670
O399        O  0.48891681  0.57470687  0.53797115    -0.75700
Mg400      Mg  0.58148346  0.47356184  0.48236930     1.58000
H401        H  0.48976671  0.55517985  0.58899731    -0.06690
C402        C  0.51593028  0.41442429  0.61617733     0.92480
O403        O  0.56680319  0.38016649  0.51303862    -0.82930
C404        C  0.58475818  0.38289126  0.48428316     0.92540
O405        O  0.38361501  0.51211966  0.57140582    -0.82910
Mg406      Mg  0.47720083  0.58030278  0.47679989     1.58180
O407        O  0.53419377  0.40991918  0.58773491    -0.81250
O408        O  0.50815315  0.56524234  0.38395704    -0.82940
O409        O  0.98313802  0.99789232  0.06295204    -0.88530
C410        C  0.99662822  0.92070219  0.99144737     0.87500
Mg411      Mg  0.94485757  0.03861608  0.05564541     1.58150
O412        O  0.06650512  0.98135141  0.99505190    -0.88260
O413        O  0.04136220  0.99269447  0.07203292    -0.75590
C414        C  0.97308375  0.08567663  0.88698380     0.92550
O415        O  0.92753173  0.96074486  0.00998910    -0.75400
O416        O  0.94965373  0.09107967  0.91111861    -0.82910
Mg417      Mg  0.96499787  0.94422676  0.05677787     1.57960
C418        C  0.11251815  0.02710109  0.91181003     0.92480
O419        O  0.00122383  0.92958523  0.10607062    -0.81170
H420        H  0.10145845  0.00807090  0.02583515    -0.06510
C421        C  0.99292004  0.99584513  0.91759211     0.87410
O422        O  0.98998838  0.07599393  0.03727280    -0.75680
O423        O  0.00621595  0.93649924  0.01918582    -0.88440
O424        O  0.10511360  0.99579393  0.92358737    -0.81250
C425        C  0.08936462  0.88834889  0.97250696     0.92590
C426        C  0.03242060  0.91647493  0.11206042     0.92440
Mg427      Mg  0.03920773  0.05771228  0.94341931     1.57950
O428        O  0.00443902  0.07491472  0.89550670    -0.81180
O429        O  0.07519002  0.03974048  0.98997834    -0.75420
O430        O  0.07708436  0.89567380  0.00360759    -0.81260
O431        O  0.91633376  0.94979824  0.09235292    -0.82970
O432        O  0.92435539  0.10517129  0.99552792    -0.81290
C433        C  0.08211069  0.00934130  0.00414492     0.86880
O434        O  0.99661183  0.06526179  0.97970512    -0.88430
O435        O  0.02046200  0.00432934  0.93434601    -0.88540
O436        O  0.96246111  0.00984886  0.92423887    -0.75590
Mg437      Mg  0.05947067  0.94491022  0.03743703     1.57970
O438        O  0.09323901  0.91259350  0.94872020    -0.82970
H439        H  0.01016859  0.03054276  0.09584524    -0.06690
O440        O  0.93641733  0.01889250  0.00277819    -0.88240
H441        H  0.90041295  0.99146923  0.97374781    -0.06520
H442        H  0.02485194  0.10292304  0.00554947    -0.06690
C443        C  0.92044001  0.99072510  0.99484009     0.86860
C444        C  0.01121604  0.00775395  0.07783777     0.87440
C445        C  0.00441723  0.08245459  0.00710340     0.87490
H446        H  0.99462003  0.97495722  0.89745471    -0.06670
O447        O  0.01087229  0.92657905  0.96105628    -0.75700
Mg448      Mg  0.94355366  0.05618366  0.96053566     1.58000
H449        H  0.97465542  0.90190797  0.99297214    -0.06690
C450        C  0.89103806  0.97174257  0.08535210     0.92480
O451        O  0.90681557  0.08528102  0.04914107    -0.82930
C452        C  0.91048455  0.11047429  0.02645792     0.92540
O453        O  0.05402350  0.90976589  0.08662060    -0.82910
Mg454      Mg  0.05731782  0.96180137  0.94213650     1.58180
O455        O  0.89817467  0.00281632  0.07310588    -0.81250
O456        O  0.08846830  0.05129955  0.90816951    -0.82940
C457        C  0.74273021  0.04984418  0.37624754     0.02950
C458        C  0.73191101  0.01402124  0.37637965    -0.13200
C459        C  0.69582937  0.00468522  0.37529629     0.00450
C460        C  0.66962097  0.03188159  0.37426932    -0.11730
C461        C  0.67992975  0.06834216  0.37420814     0.02940
C462        C  0.71669135  0.07719828  0.37509504    -0.11150
H463        H  0.75206065  0.99287475  0.37725452     0.08530
H464        H  0.64151151  0.02472243  0.37347113     0.06060
H465        H  0.72493575  0.10510759  0.37510831     0.05910
C466        C  0.59930409  0.12549611  0.34708289     0.02950
C467        C  0.62509296  0.09766098  0.34782066    -0.13200
C468        C  0.65241255  0.09718176  0.37393599     0.00450
C469        C  0.65334664  0.12417732  0.40017521    -0.11730
C470        C  0.62744944  0.15165787  0.40053740     0.02940
C471        C  0.60090258  0.15250826  0.37360376    -0.11150
H472        H  0.62408454  0.07629156  0.32808111     0.08530
H473        H  0.67414376  0.12357672  0.42061559     0.06060
H474        H  0.58133098  0.17411050  0.37356886     0.05910
C475        C  0.50924744  0.13933451  0.29996803     0.02950
C476        C  0.53561413  0.13810978  0.32695614    -0.13200
C477        C  0.57084475  0.12640001  0.31873111     0.00450
C478        C  0.57857498  0.11534204  0.28317861    -0.11730
C479        C  0.55180754  0.11667819  0.25660927     0.02940
C480        C  0.51785934  0.12932686  0.26517057    -0.11150
H481        H  0.52854772  0.14584639  0.35403221     0.08530
H482        H  0.60506225  0.10583632  0.27606295     0.06060
H483        H  0.49726048  0.13025037  0.24445602     0.05910
C484        C  0.63136816  0.19277786  0.49361401     0.02950
C485        C  0.63126617  0.16739215  0.46583100    -0.13200
C486        C  0.62767540  0.17872754  0.42979042     0.00450
C487        C  0.62405517  0.21579123  0.42210814    -0.11730
C488        C  0.62446826  0.24101480  0.45018323     0.02940
C489        C  0.62823824  0.22921176  0.48545045    -0.11150
H490        H  0.63379907  0.13906716  0.47226362     0.08530
H491        H  0.62079521  0.22493705  0.39467020     0.06060
H492        H  0.62831348  0.24880462  0.50707379     0.05910
C493        C  0.29709831  0.99373704  0.62896425     0.02950
C494        C  0.32438679  0.96764856  0.63192291    -0.13200
C495        C  0.31708457  0.93121942  0.62330810     0.00450
C496        C  0.28170129  0.92149014  0.61346474    -0.11730
C497        C  0.25500891  0.94784839  0.61040058     0.02940
C498        C  0.26328850  0.98362054  0.61689628    -0.11150
H499        H  0.35089690  0.97578388  0.64053016     0.08530
H500        H  0.27483163  0.89370971  0.60817790     0.06060
H501        H  0.24236543  0.00387970  0.61424464     0.05910
C502        C  0.39981712  0.87646696  0.65116634     0.02950
C503        C  0.37309265  0.90343915  0.65030872    -0.13200
C504        C  0.34598647  0.90330971  0.62387873     0.00450
C505        C  0.34625539  0.87611652  0.59764942    -0.11730
C506        C  0.37257206  0.84899330  0.59765292     0.02940
C507        C  0.39909985  0.84931090  0.62469120    -0.11150
H508        H  0.37325442  0.92454541  0.67029496     0.08530
H509        H  0.32563997  0.87596967  0.57709853     0.06060
H510        H  0.41925974  0.82832156  0.62508106     0.05910
C511        C  0.44793098  0.88901058  0.74118842     0.02950
C512        C  0.48189863  0.87640251  0.73278547    -0.13200
C513        C  0.49010439  0.86416983  0.69864051     0.00450
C514        C  0.46355776  0.86432849  0.67179927    -0.11730
C515        C  0.42837482  0.87656400  0.67961576     0.02940
C516        C  0.42086206  0.88894657  0.71484493    -0.11150
H517        H  0.50267982  0.87647760  0.75333856     0.08530
H518        H  0.47054214  0.85529919  0.64511297     0.06060
H519        H  0.39433536  0.89830951  0.72195261     0.05910
C520        C  0.35912081  0.80134611  0.50794260     0.02950
C521        C  0.36715053  0.76608180  0.51739863    -0.13200
C522        C  0.37916579  0.75744031  0.55169770     0.00450
C523        C  0.38128367  0.78431683  0.57807181    -0.11730
C524        C  0.37175721  0.82027926  0.56956223     0.02940
C525        C  0.36123651  0.82861886  0.53385106    -0.11150
H526        H  0.36585976  0.74516666  0.49706703     0.08530
H527        H  0.39028218  0.77711382  0.60480118     0.06060
H528        H  0.35507241  0.85601862  0.52605021     0.05910
O529        O  0.55206374  0.03490090  0.02498673    -0.88530
C530        C  0.44851499  0.06384744  0.01415076     0.87500
Mg531      Mg  0.58413210  0.02221881  0.98034261     1.58150
O532        O  0.46271235  0.97887961  0.05100020    -0.88260
O533        O  0.53444251  0.01219300  0.07637572    -0.75590
C534        C  0.48064532  0.91814384  0.88597775     0.92550
O535        O  0.51254780  0.07614434  0.96161507    -0.75400
O536        O  0.51340366  0.92671399  0.88785088    -0.82910
Mg537      Mg  0.52343969  0.08367878  0.02219880     1.57960
C538        C  0.41158568  0.89169540  0.01720715     0.92480
O539        O  0.53807655  0.09010793  0.08306705    -0.81170
H540        H  0.48562426  0.94636255  0.08738192    -0.06510
C541        C  0.44211552  0.98615822  0.94466896     0.87410
O542        O  0.57555895  0.96209726  0.99381646    -0.75680
O543        O  0.47545885  0.05456476  0.03146227    -0.88440
O544        O  0.40704249  0.92149506  0.03350466    -0.81250
C545        C  0.38422049  0.02720324  0.08198991     0.92590
C546        C  0.52018390  0.08617242  0.11182484     0.92440
Mg547      Mg  0.47570593  0.92072794  0.97528479     1.57950
O548        O  0.46210362  0.91538970  0.91437874    -0.81180
O549        O  0.48582958  0.92635166  0.03658574    -0.75420
O550        O  0.41459514  0.04172624  0.08746004    -0.81260
O551        O  0.57185978  0.11640545  0.00767803    -0.82970
O552        O  0.58657993  0.95983647  0.91410979    -0.81290
C553        C  0.47809097  0.95049881  0.05962454     0.86880
O554        O  0.52451699  0.94875875  0.96755306    -0.88430
O555        O  0.44849347  0.97013510  0.97322144    -0.88540
O556        O  0.46646574  0.99170266  0.92145745    -0.75590
Mg557      Mg  0.47414516  0.02633302  0.08026110     1.57970
O558        O  0.38086176  0.99816327  0.06428645    -0.82970
H559        H  0.58569601  0.00932450  0.05849889    -0.06690
O560        O  0.53764729  0.02431709  0.94763037    -0.88240
H561        H  0.51284058  0.05536112  0.91124791    -0.06520
H562        H  0.55363839  0.91213234  0.99444357    -0.06690
C563        C  0.52111006  0.05202128  0.93887849     0.86860
C564        C  0.55868693  0.01871053  0.05337333     0.87440
C565        C  0.55121574  0.93967063  0.98536322     0.87490
H566        H  0.41524948  0.99590829  0.93940645    -0.06670
O567        O  0.42393719  0.04165933  0.00589644    -0.75700
Mg568      Mg  0.52689306  0.97662338  0.91862495     1.58000
H569        H  0.44627246  0.09134019  0.00500893    -0.06690
C570        C  0.58838123  0.11267449  0.97815917     0.92480
O571        O  0.61940902  0.00501504  0.93508256    -0.82930
C572        C  0.61682158  0.97449876  0.92001073     0.92540
O573        O  0.48773337  0.07642447  0.11050349    -0.82910
Mg574      Mg  0.41603179  0.98158674  0.01841109     1.58180
O575        O  0.59381093  0.08177811  0.96433731    -0.81250
O576        O  0.42545699  0.89045015  0.98627879    -0.82940
C577        C  0.63818806  0.29410036  0.99057167     0.02950
C578        C  0.63124209  0.25932746  0.97862416    -0.13200
C579        C  0.62560981  0.25190622  0.94240141     0.00450
C580        C  0.62547977  0.28012304  0.91741443    -0.11730
C581        C  0.63165949  0.31585721  0.92887866     0.02940
C582        C  0.63848857  0.32257181  0.96575298    -0.11150
H583        H  0.63078868  0.23744160  0.99791841     0.08530
H584        H  0.62062706  0.27422591  0.88933528     0.06060
H585        H  0.64378989  0.34961262  0.97513340     0.05910
C586        C  0.65714453  0.40112933  0.87836227     0.02950
C587        C  0.63000808  0.40243192  0.85196906    -0.13200
C588        C  0.60327372  0.37592779  0.85041816     0.00450
C589        C  0.60435953  0.34753715  0.87552419    -0.11730
C590        C  0.63101850  0.34590248  0.90234542     0.02940
C591        C  0.65712508  0.37295152  0.90362109    -0.11150
H592        H  0.62965337  0.42417003  0.83264786     0.08530
H593        H  0.58423225  0.32666981  0.87438023     0.06060
H594        H  0.67766912  0.37189229  0.92425225     0.05910
C595        C  0.51102422  0.36867544  0.80738322     0.02950
C596        C  0.51822842  0.37873565  0.77233427    -0.13200
C597        C  0.55206003  0.39030638  0.76217427     0.00450
C598        C  0.58020066  0.38989967  0.78754246    -0.11730
C599        C  0.57377792  0.37807746  0.82320549     0.02940
C600        C  0.53860518  0.36808815  0.83293715    -0.11150
H601        H  0.49669623  0.37821455  0.75258475     0.08530
H602        H  0.60669323  0.39826697  0.77942518     0.06060
H603        H  0.53260333  0.35970753  0.86006808     0.05910
C604        C  0.70518545  0.49129501  0.87375844     0.02950
C605        C  0.67786569  0.46549161  0.87227320    -0.13200
C606        C  0.68579224  0.42887475  0.87945745     0.00450
C607        C  0.72155052  0.41875298  0.88745024    -0.11730
C608        C  0.74845954  0.44480865  0.88880997     0.02940
C609        C  0.73995008  0.48072366  0.88257478    -0.11150
H610        H  0.65084944  0.47394899  0.86552939     0.08530
H611        H  0.72857156  0.39088342  0.89240038     0.06060
H612        H  0.76102109  0.50075673  0.88369048     0.05910
C613        C  0.37891966  0.74891064  0.05245662     0.02950
C614        C  0.38060685  0.72321178  0.07990108    -0.13200
C615        C  0.37437151  0.68657572  0.07207498     0.00450
C616        C  0.36649075  0.67632283  0.03626904    -0.11730
C617        C  0.36533917  0.70236826  0.00900582     0.02940
C618        C  0.37159328  0.73825808  0.01741952    -0.11150
H619        H  0.38673160  0.73177448  0.10703060     0.08530
H620        H  0.36139152  0.64844775  0.02959456     0.06060
H621        H  0.37080293  0.75831781  0.99623583     0.05910
C622        C  0.49272212  0.63741091  0.20724830     0.02950
C623        C  0.48033823  0.62237567  0.23933717    -0.13200
C624        C  0.44412854  0.62189171  0.24770868     0.00450
C625        C  0.41885630  0.62857532  0.22095784    -0.11730
C626        C  0.43010551  0.63697100  0.18587500     0.02940
C627        C  0.46701203  0.64441901  0.17985108    -0.11150
H628        H  0.49932343  0.61364901  0.25975323     0.08530
H629        H  0.39065891  0.62594568  0.22717456     0.06060
H630        H  0.47531994  0.65487265  0.15419860     0.05910
C631        C  0.34986583  0.60649612  0.13038111     0.02950
C632        C  0.34938947  0.63228332  0.10284736    -0.13200
C633        C  0.37563620  0.65931699  0.10129018     0.00450
C634        C  0.40244738  0.66069474  0.12814864    -0.11730
C635        C  0.40307266  0.63543230  0.15620711     0.02940
C636        C  0.37697399  0.60808808  0.15655578    -0.11150
H637        H  0.32840577  0.63138324  0.08264839     0.08530
H638        H  0.42253130  0.68160431  0.12740126     0.06060
H639        H  0.37739497  0.58809779  0.17770814     0.05910
C640        C  0.30437410  0.51561342  0.14100781     0.02950
C641        C  0.33105954  0.54207314  0.13979382    -0.13200
C642        C  0.32173153  0.57826495  0.13228526     0.00450
C643        C  0.28525494  0.58740822  0.12694633    -0.11730
C644        C  0.25878611  0.56071820  0.12850204     0.02940
C645        C  0.26874426  0.52516696  0.13503385    -0.11150
H646        H  0.35874764  0.53447837  0.14448417     0.08530
H647        H  0.27746549  0.61498512  0.12146991     0.06060
H648        H  0.24830410  0.50448314  0.13573942     0.05910
O649        O  0.02986063  0.55404619  0.03551948    -0.88530
C650        C  0.02601079  0.44874085  0.05962134     0.87500
Mg651      Mg  0.98271982  0.58397469  0.02405919     1.58150
O652        O  0.05767270  0.46895699  0.97435488    -0.88260
O653        O  0.08115137  0.54004157  0.01015615    -0.75590
C654        C  0.89100191  0.47750277  0.91733411     0.92550
O655        O  0.96903952  0.51052922  0.07621086    -0.75400
O656        O  0.88932832  0.50876993  0.93085369    -0.82910
Mg657      Mg  0.02919840  0.52341449  0.08310853     1.57960
C658        C  0.02688969  0.41706757  0.88450111     0.92480
O659        O  0.08884939  0.53834173  0.09230095    -0.81170
H660        H  0.09180555  0.49530702  0.94260675    -0.06510
C661        C  0.95482222  0.44017462  0.98251111     0.87410
O662        O  0.99519665  0.57662542  0.96406755    -0.75680
O663        O  0.04147940  0.47718289  0.05209756    -0.88440
O664        O  0.04329223  0.41269434  0.91429694    -0.81250
C665        C  0.09263645  0.38900888  0.01884569     0.92590
C666        C  0.11960936  0.52450636  0.08652812     0.92440
Mg667      Mg  0.98086838  0.47896278  0.91733185     1.58750
O668        O  0.92100922  0.46212698  0.91155030    -0.81180
O669        O  0.04105837  0.49275825  0.92279527    -0.75420
O670        O  0.09719339  0.41837504  0.03603070    -0.81260
O671        O  0.01323550  0.57112757  0.11658138    -0.82970
O672        O  0.91260587  0.58376173  0.96395830    -0.81290
C673        C  0.06481067  0.48575976  0.94654878     0.86880
O674        O  0.96999020  0.52556020  0.94829878    -0.88430
O675        O  0.98179115  0.44852384  0.96515234    -0.88540
O676        O  0.93097978  0.46327515  0.99096981    -0.75590
Mg677      Mg  0.08894148  0.47946647  0.02133527     1.57970
O678        O  0.08012996  0.38907538  0.98715629    -0.82970
H679        H  0.06068712  0.59074832  0.01153158    -0.06690
O680        O  0.95296396  0.53568016  0.02518370    -0.88240
H681        H  0.91808074  0.51010704  0.05672132    -0.06520
H682        H  0.99565511  0.55692908  0.91328922    -0.06690
C683        C  0.94540133  0.51879930  0.05279737     0.86860
C684        C  0.05731613  0.56290892  0.01917959     0.87440
C685        C  0.98685056  0.55315243  0.94059818     0.87490
H686        H  0.95173942  0.41262703  0.99125456    -0.06670
O687        O  0.01875619  0.42518640  0.03583218    -0.75700
Mg688      Mg  0.92258060  0.52388136  0.97862908     1.58000
H689        H  0.01801183  0.44398839  0.08706111    -0.06690
C690        C  0.98249593  0.58587715  0.11448559     0.92480
O691        O  0.93542340  0.61803355  0.00737655    -0.82930
C692        C  0.91788190  0.61443518  0.97824753     0.92540
O693        O  0.12348051  0.49563853  0.06854882    -0.82910
Mg694      Mg  0.02996234  0.41983847  0.97481567     1.58180
O695        O  0.96723163  0.59152634  0.08424608    -0.81250
O696        O  0.99618882  0.43188569  0.88287005    -0.82940
C697        C  0.90071291  0.12333972  0.64721198     0.02950
C698        C  0.87540120  0.09530660  0.64557064    -0.13200
C699        C  0.84740756  0.09582990  0.62006463     0.00450
C700        C  0.84551960  0.12431875  0.59527682    -0.11730
C701        C  0.87028090  0.15260683  0.59626079     0.02940
C702        C  0.89761942  0.15200145  0.62247424    -0.11150
H703        H  0.87715021  0.07322370  0.66441649     0.08530
H704        H  0.82428205  0.12476286  0.57533704     0.06060
H705        H  0.91645542  0.17403448  0.62362058     0.05910
C706        C  0.95072811  0.11159324  0.73661143     0.02950
C707        C  0.92378766  0.10943311  0.71007758    -0.13200
C708        C  0.92984285  0.12330293  0.67510259     0.00450
C709        C  0.96406015  0.13750413  0.66704557    -0.11730
C710        C  0.99057687  0.13949735  0.69379600     0.02940
C711        C  0.98308803  0.12789646  0.72830979    -0.11150
H712        H  0.89831178  0.09756160  0.71692142     0.08530
H713        H  0.97026414  0.14667959  0.64022495     0.06060
H714        H  0.00369614  0.13011843  0.74889538     0.05910
C715        C  0.80067460  0.00475468  0.62497676     0.02950
C716        C  0.76542201  0.01515987  0.61810383    -0.13200
C717        C  0.75627367  0.05109236  0.61308568     0.00450
C718        C  0.78296891  0.07737919  0.61377358    -0.11730
C719        C  0.81918555  0.06754837  0.61987688     0.02940
C720        C  0.82781471  0.03086811  0.62594856    -0.11150
H721        H  0.74451717  0.99493301  0.61747327     0.08530
H722        H  0.77542595  0.10524685  0.60964447     0.06060
H723        H  0.85517937  0.02264796  0.63143073     0.05910
C724        C  0.85598683  0.20450965  0.50903543     0.02950
C725        C  0.86064515  0.23969214  0.52092976    -0.13200
C726        C  0.86862864  0.24723969  0.55666206     0.00450
C727        C  0.87201047  0.21890867  0.58142226    -0.11730
C728        C  0.86702032  0.18290496  0.57013093     0.02940
C729        C  0.85893866  0.17597891  0.53357186    -0.11150
H730        H  0.85910841  0.26161409  0.50170892     0.08530
H731        H  0.87893666  0.22491962  0.60903790     0.06060
H732        H  0.85539762  0.14866095  0.52412167     0.05910
C733        C  0.00977973  0.14669361  0.19383885     0.02950
C734        C  0.03546369  0.14152776  0.16716189    -0.13200
C735        C  0.06938618  0.12655360  0.17597578     0.00450
C736        C  0.07542007  0.11361764  0.21132436    -0.11730
C737        C  0.04906983  0.11837592  0.23763095     0.02940
C738        C  0.01788351  0.13737996  0.22905302    -0.11150
H739        H  0.02879639  0.14886925  0.13979986     0.08530
H740        H  0.10007910  0.09992616  0.21848395     0.06060
H741        H  0.99762475  0.14130314  0.24952194     0.05910
C742        C  0.13239472  0.19707524  0.00509411     0.02950
C743        C  0.12639979  0.23292674  0.01412613    -0.13200
C744        C  0.12062711  0.24322626  0.04958513     0.00450
C745        C  0.12117150  0.21710144  0.07679304    -0.11730
C746        C  0.12777558  0.18056096  0.06817919     0.02940
C747        C  0.13346072  0.17081744  0.03202752    -0.11150
H748        H  0.12597096  0.25317146  0.99312453     0.08530
H749        H  0.11629311  0.22517511  0.10427420     0.06060
H750        H  0.13847398  0.14303302  0.02477353     0.05910
C751        C  0.15176687  0.09717618  0.12290156     0.02950
C752        C  0.15305064  0.12463355  0.09695385    -0.13200
C753        C  0.12731104  0.15232506  0.09643601     0.00450
C754        C  0.10046799  0.15259527  0.12256971    -0.11730
C755        C  0.09811834  0.12503203  0.14835582     0.02940
C756        C  0.12380878  0.09713156  0.14800664    -0.11150
H757        H  0.17431934  0.12457411  0.07727644     0.08530
H758        H  0.08122541  0.17446279  0.12262650     0.06060
H759        H  0.12258536  0.07562739  0.16753279     0.05910
C760        C  0.24445383  0.05521666  0.12466267     0.02950
C761        C  0.21678763  0.08069329  0.12310479    -0.13200
C762        C  0.18072951  0.06969601  0.12483762     0.00450
C763        C  0.17281397  0.03263851  0.12785720    -0.11730
C764        C  0.20078786  0.00711996  0.12963407     0.02940
C765        C  0.23624590  0.01893120  0.12890190    -0.11150
H766        H  0.22337387  0.10885131  0.11976721     0.08530
H767        H  0.14522559  0.02372552  0.12823756     0.06060
H768        H  0.25787711  0.99932515  0.12985351     0.05910
O769        O  0.23120451  0.18755955  0.74032841    -0.88530
C770        C  0.25020411  0.26559671  0.66834309     0.87500
Mg771      Mg  0.19428370  0.19283879  0.78267000     1.58150
O772        O  0.31821709  0.25399320  0.73139850    -0.88260
O773        O  0.28902466  0.17645210  0.73484368    -0.75590
C774        C  0.22739985  0.35663312  0.84294121     0.92550
O775        O  0.17873955  0.24779450  0.70912621    -0.75400
O776        O  0.20386716  0.33234895  0.84691634    -0.82910
Mg777      Mg  0.21311878  0.20142125  0.68764958     1.57960
C778        C  0.36511464  0.33426360  0.78520268     0.92480
O779        O  0.24580312  0.15344011  0.66700615    -0.81170
H780        H  0.35295289  0.22104907  0.75611894    -0.06510
C781        C  0.24583869  0.33096905  0.74932638     0.87410
O782        O  0.24144652  0.20654004  0.81985244    -0.75680
O783        O  0.25708374  0.23661286  0.68329165    -0.88440
O784        O  0.35904851  0.32347069  0.75322792    -0.81250
C785        C  0.34492970  0.28326240  0.64247672     0.92590
C786        C  0.27685651  0.14472364  0.65582752     0.92440
Mg787      Mg  0.29170671  0.30141179  0.81045996     1.57950
O788        O  0.25823625  0.34915733  0.83048122    -0.81180
O789        O  0.32746285  0.25544615  0.78980689    -0.75420
O790        O  0.33029799  0.25235794  0.64574163    -0.81260
O791        O  0.16285782  0.16752560  0.69046447    -0.82970
O792        O  0.17802786  0.24888482  0.85372607    -0.81290
C793        C  0.33388140  0.24287118  0.75869995     0.86880
O794        O  0.24905768  0.26495438  0.81430037    -0.88430
O795        O  0.27339218  0.31398326  0.75759624    -0.88540
O796        O  0.21556146  0.32480479  0.76363038    -0.75590
Mg797      Mg  0.30939667  0.21480586  0.69134571     1.57970
O798        O  0.34869099  0.30465789  0.66884775    -0.82970
H799        H  0.25639478  0.14903828  0.76834797    -0.06690
O800        O  0.18730417  0.24761654  0.76773555    -0.88240
H801        H  0.15337747  0.28164833  0.74338117    -0.06520
H802        H  0.27931217  0.23475777  0.84699463    -0.06690
C803        C  0.17208380  0.25954696  0.74049407     0.86860
C804        C  0.25846119  0.16997665  0.74833173     0.87440
C805        C  0.25727867  0.23568440  0.82802941     0.87490
H806        H  0.24743728  0.35127244  0.72862448    -0.06670
O807        O  0.26552649  0.29472850  0.67743337    -0.75700
Mg808      Mg  0.19645571  0.28638235  0.80777845     1.58000
H809        H  0.22974773  0.26636156  0.64766822    -0.06690
C810        C  0.13860872  0.16971816  0.71426735     0.92480
O811        O  0.15852526  0.19666970  0.83184892    -0.82930
C812        C  0.16395124  0.21795321  0.85810301     0.92540
O813        O  0.30153007  0.16810607  0.65285005    -0.82910
Mg814      Mg  0.31136541  0.30872598  0.71623741     1.58180
O815        O  0.14578390  0.17896437  0.74652451    -0.81250
O816        O  0.34021852  0.33697597  0.80814190    -0.82940
O817        O  0.69777491  0.21985881  0.21856747    -0.88530
C818        C  0.80049309  0.23102171  0.18817095     0.87500
Mg819      Mg  0.66403249  0.26525026  0.22764739     1.58150
O820        O  0.78611514  0.19898394  0.27428393    -0.88260
O821        O  0.71659936  0.16919542  0.24282830    -0.75590
C822        C  0.76691121  0.36679930  0.32754130     0.92550
O823        O  0.73296566  0.28184827  0.17212356    -0.75400
O824        O  0.73485061  0.36550868  0.31617141    -0.82910
Mg825      Mg  0.72445744  0.22011538  0.16924538     1.57960
C826        C  0.83527116  0.23588566  0.36164814     0.92480
O827        O  0.71323245  0.15909008  0.16535820    -0.81170
H828        H  0.76388605  0.16365895  0.30801697    -0.06510
C829        C  0.80607062  0.30418945  0.26218404     0.87410
O830        O  0.67307279  0.25572237  0.28836646    -0.75680
O831        O  0.77373302  0.21374513  0.19751262    -0.88440
O832        O  0.83998801  0.21737286  0.33324628    -0.81250
C833        C  0.86644851  0.17009575  0.22791894     0.92590
C834        C  0.73111512  0.13020112  0.16979404     0.92440
Mg835      Mg  0.77268571  0.27704326  0.32889793     1.57950
O836        O  0.78508520  0.33811549  0.33211468    -0.81180
O837        O  0.76312256  0.21532890  0.32596564    -0.75420
O838        O  0.83704411  0.16352659  0.21165980    -0.81260
O839        O  0.67275529  0.22864606  0.13944603    -0.82970
O840        O  0.66145693  0.33647337  0.28483276    -0.81290
C841        C  0.77094835  0.19134298  0.30279678     0.86880
O842        O  0.72362748  0.28351366  0.30038008    -0.88430
O843        O  0.80010585  0.27669080  0.27997732    -0.88540
O844        O  0.78133504  0.32680260  0.25469645    -0.75590
Mg845      Mg  0.77683779  0.16638604  0.22855157     1.57970
O846        O  0.86650331  0.18195105  0.25984432    -0.82970
H847        H  0.66524986  0.18722273  0.24591695    -0.06690
O848        O  0.70985171  0.29828055  0.22377614    -0.88240
H849        H  0.73121595  0.33364769  0.18955088    -0.06520
H850        H  0.69498410  0.25883207  0.33835212    -0.06690
C851        C  0.72468285  0.30589000  0.19506778     0.86860
C852        C  0.69191674  0.19202859  0.23591537     0.87440
C853        C  0.69722672  0.26606893  0.31034484     0.87490
H854        H  0.83288521  0.30894987  0.25245871    -0.06670
O855        O  0.82483611  0.24011215  0.21059066    -0.75700
Mg856      Mg  0.72098273  0.33062574  0.26903124     1.58000
H857        H  0.80317797  0.23874515  0.16033454    -0.06690
C858        C  0.66045666  0.26039587  0.13767994     0.92480
O859        O  0.62716820  0.31092832  0.24296689    -0.82930
C860        C  0.63075921  0.32914292  0.27168525     0.92540
O861        O  0.76303751  0.13077101  0.18179239    -0.82910
Mg862      Mg  0.83250944  0.23024705  0.27190618     1.58180
O863        O  0.65518509  0.27852600  0.16628627    -0.81250
O864        O  0.82358937  0.26785539  0.35971244    -0.82940
C865        C  0.12708618  0.69088929  0.99536751     0.02950
C866        C  0.12270803  0.72711071  0.98693104    -0.13200
C867        C  0.11749074  0.73841139  0.95167296     0.00450
C868        C  0.11794597  0.71303146  0.92375200    -0.11730
C869        C  0.12376101  0.67618621  0.93155876     0.02940
C870        C  0.12785567  0.66528554  0.96773436    -0.11150
H871        H  0.12266269  0.74693039  0.00835061     0.08530
H872        H  0.11398820  0.72194434  0.89633388     0.06060
H873        H  0.13188937  0.63718336  0.97439692     0.05910
C874        C  0.12579355  0.64906379  0.90222941     0.02950
C875        C  0.10087775  0.64946208  0.87383909    -0.13200
C876        C  0.10160030  0.62292164  0.84678193     0.00450
C877        C  0.12870513  0.59641283  0.84798489    -0.11730
C878        C  0.15445355  0.59605338  0.87582271     0.02940
C879        C  0.15246937  0.62230846  0.90291518    -0.11150
H880        H  0.08055647  0.67033401  0.87315952     0.08530
H881        H  0.12969786  0.57590748  0.82738599     0.06060
H882        H  0.17175321  0.62189621  0.92476356     0.05910
C883        C  0.05458589  0.61385842  0.75552218     0.02950
C884        C  0.02046228  0.62602997  0.76448205    -0.13200
C885        C  0.01162034  0.63456114  0.79961304     0.00450
C886        C  0.03789972  0.63298689  0.82648365    -0.11730
C887        C  0.07344518  0.62271917  0.81803843     0.02940
C888        C  0.08143850  0.61241409  0.78223479    -0.11150
H889        H  0.99986439  0.62761806  0.74381569     0.08530
H890        H  0.03049356  0.63968209  0.85374428     0.06060
H891        H  0.10813775  0.60360798  0.77505293     0.05910
C892        C  0.20290251  0.50578425  0.87076835     0.02950
C893        C  0.23716561  0.51568296  0.88151412    -0.13200
C894        C  0.24545502  0.55116943  0.88942582     0.00450
C895        C  0.21862059  0.57763257  0.88745734    -0.11730
C896        C  0.18327226  0.56817541  0.87709698     0.02940
C897        C  0.17570747  0.53188855  0.86843670    -0.11150
H898        H  0.25809481  0.49532110  0.88314086     0.08530
H899        H  0.22529532  0.60523312  0.89383663     0.06060
H900        H  0.14903563  0.52391415  0.86015756     0.05910
O901        O  0.27730945  0.78333775  0.19700212    -0.88530
C902        C  0.26853490  0.80536498  0.30254311     0.87500
Mg903      Mg  0.23065368  0.77121211  0.16638567     1.58150
O904        O  0.29926286  0.71857621  0.28422808    -0.88260
O905        O  0.32624789  0.75433126  0.21360029    -0.75590
C906        C  0.13268984  0.66574866  0.27016082     0.92550
O907        O  0.21504365  0.82360531  0.23945440    -0.75400
O908        O  0.13164097  0.68134583  0.23985111    -0.82910
Mg909      Mg  0.27525462  0.83066811  0.22911766     1.57960
C910        C  0.26569273  0.62976033  0.33686114     0.92480
O911        O  0.33683447  0.84209101  0.21826808    -0.81170
H912        H  0.33455496  0.68580363  0.26034152    -0.06510
C913        C  0.19632755  0.72956552  0.30954535     0.87410
O914        O  0.24186819  0.71067587  0.17520123    -0.75680
O915        O  0.28514360  0.79769955  0.27481169    -0.88440
O916        O  0.28198011  0.65945295  0.34172028    -0.81250
C917        C  0.33236096  0.76348820  0.36480963     0.92590
C918        C  0.36586319  0.83336842  0.23467082     0.92440
Mg919      Mg  0.22285915  0.66323120  0.27142192     1.57950
O920        O  0.16235201  0.65839751  0.28574352    -0.81180
O921        O  0.28341567  0.66717958  0.25995372    -0.75420
O922        O  0.33801662  0.77956876  0.33514149    -0.81260
O923        O  0.25867209  0.86631048  0.18247395    -0.82970
O924        O  0.15888144  0.71263375  0.16549784    -0.81290
C925        C  0.30705033  0.69044709  0.26815499     0.86880
O926        O  0.21388579  0.69490660  0.22473673    -0.88430
O927        O  0.22306021  0.71108706  0.30223974    -0.88540
O928        O  0.17388987  0.73949085  0.28557865    -0.75590
Mg929      Mg  0.33124766  0.76467831  0.27429794     1.57970
O930        O  0.31884551  0.73229642  0.36547589    -0.82970
H931        H  0.30923537  0.75831219  0.16187553    -0.06690
O932        O  0.19942076  0.77289204  0.21374706    -0.88240
H933        H  0.16402750  0.80498594  0.23822014    -0.06520
H934        H  0.24040472  0.65951114  0.19419065    -0.06690
C935        C  0.19154462  0.80063634  0.23034196     0.86860
C936        C  0.30453117  0.76561384  0.18955695     0.87440
C937        C  0.23192695  0.68711519  0.19790648     0.87490
H938        H  0.19242205  0.73828603  0.33694502    -0.06670
O939        O  0.26002177  0.78160582  0.32561589    -0.75700
Mg940      Mg  0.16730893  0.72738931  0.22507247     1.58000
H941        H  0.26053606  0.83299139  0.30704096    -0.06690
C942        C  0.23066976  0.86274261  0.16300958     0.92480
O943        O  0.18412503  0.75438416  0.13116960    -0.82930
C944        C  0.16563779  0.72594625  0.13480960     0.92540
O945        O  0.36595198  0.81012418  0.25966212    -0.82910
Mg946      Mg  0.27008979  0.72029993  0.33244305     1.58180
O947        O  0.21692934  0.83198203  0.15632981    -0.81250
O948        O  0.23678305  0.62783491  0.31873637    -0.82940
C949        C  0.69805594  0.98720410  0.13812493     0.02950
C950        C  0.73301392  0.97933831  0.12830015    -0.13200
C951        C  0.74197085  0.94660679  0.11259870     0.00450
C952        C  0.71576410  0.91960861  0.10964167    -0.11730
C953        C  0.68029989  0.92620886  0.12174754     0.02940
C954        C  0.67153830  0.96090618  0.13488178    -0.11150
H955        H  0.75336461  0.99996835  0.13112578     0.08530
H956        H  0.72318872  0.89376688  0.09848919     0.06060
H957        H  0.64438167  0.96762281  0.14253814     0.05910
C958        C  0.65271093  0.89706986  0.12187454     0.02950
C959        C  0.65190656  0.87036777  0.09524571    -0.13200
C960        C  0.62676832  0.84227430  0.09650475     0.00450
C961        C  0.60163436  0.84113251  0.12466365    -0.11730
C962        C  0.60174586  0.86774855  0.15149810     0.02940
C963        C  0.62737066  0.89545409  0.14959140    -0.11150
H964        H  0.67102005  0.87115064  0.07350605     0.08530
H965        H  0.58236161  0.81947149  0.12576985     0.06060
H966        H  0.62778142  0.91588260  0.17026867     0.05910
C967        C  0.63227320  0.79636040  0.00560905     0.02950
C968        C  0.63389199  0.76040482  0.01603021    -0.13200
C969        C  0.63062291  0.75044478  0.05190907     0.00450
C970        C  0.62780846  0.77713135  0.07842311    -0.11730
C971        C  0.62781321  0.81380169  0.06861364     0.02940
C972        C  0.62955014  0.82323149  0.03192653    -0.11150
H973        H  0.63556555  0.73964683  0.99559540     0.08530
H974        H  0.62509449  0.76935917  0.10629258     0.06060
H975        H  0.62854764  0.85123418  0.02389467     0.05910
C976        C  0.51449404  0.86780580  0.20581212     0.02950
C977        C  0.52778051  0.88610361  0.23586973    -0.13200
C978        C  0.56430330  0.88770610  0.24306504     0.00450
C979        C  0.58852169  0.87884089  0.21620643    -0.11730
C980        C  0.57595920  0.86773098  0.18212337     0.02940
C981        C  0.53890264  0.85937393  0.17792147    -0.11150
H982        H  0.50938645  0.89517795  0.25648212     0.08530
H983        H  0.61692977  0.88170022  0.22149655     0.06060
H984        H  0.52940403  0.84700041  0.15341687     0.05910
C985        C  0.87361763  0.65299914  0.40184642     0.02950
C986        C  0.84721274  0.62618251  0.40150277    -0.13200
C987        C  0.84552753  0.60067555  0.37363513     0.00450
C988        C  0.87134555  0.60200118  0.34619916    -0.11730
C989        C  0.89842074  0.62827283  0.34640340     0.02940
C990        C  0.89893206  0.65394435  0.37414591    -0.11150
H991        H  0.82796713  0.62522440  0.42311958     0.08530
H992        H  0.87056717  0.58237058  0.32476225     0.06060
H993        H  0.91932205  0.67458936  0.37444239     0.05910
C994        C  0.98932968  0.63636683  0.30140636     0.02950
C995        C  0.98035531  0.62898517  0.26589701    -0.13200
C996        C  0.94532466  0.62076712  0.25597675     0.00450
C997        C  0.91829943  0.62045908  0.28203378    -0.11730
C998        C  0.92670571  0.62850212  0.31827709     0.02940
C999        C  0.96265851  0.63629915  0.32770813    -0.11150
H1000       H  0.00119529  0.62894605  0.24567413     0.08530
H1001       H  0.89113194  0.61400573  0.27404800     0.06060
H1002       H  0.97004549  0.64191105  0.35528644     0.05910
C1003       C  0.87259058  0.69404758  0.49525273     0.02950
C1004       C  0.87153182  0.66862993  0.46744492    -0.13200
C1005       C  0.87496106  0.67981893  0.43138127     0.00450
C1006       C  0.87968046  0.71675058  0.42377080    -0.11730
C1007       C  0.88018669  0.74189038  0.45184192     0.02940
C1008       C  0.87650224  0.73031421  0.48711741    -0.11150
H1009       H  0.86801311  0.64046133  0.47387573     0.08530
H1010       H  0.88283180  0.72589703  0.39637491     0.06060
H1011       H  0.87699009  0.74993560  0.50871388     0.05910
C1012       C  0.79809912  0.51080312  0.36188218     0.02950
C1013       C  0.76409305  0.51929598  0.37437142    -0.13200
C1014       C  0.75568668  0.55381040  0.38592344     0.00450
C1015       C  0.78203158  0.58061204  0.38561932    -0.11730
C1016       C  0.81712190  0.57249852  0.37353974     0.02940
C1017       C  0.82483479  0.53716900  0.36152382    -0.11150
H1018       H  0.74356185  0.49867783  0.37465949     0.08530
H1019       H  0.77506803  0.60746510  0.39450151     0.06060
H1020       H  0.85133504  0.52999522  0.35217611     0.05910
C1021       C  0.05636272  0.89203944  0.25987017     0.02950
C1022       C  0.02038940  0.88933170  0.26880932    -0.13200
C1023       C  0.00954608  0.87067205  0.29948000     0.00450
C1024       C  0.03593284  0.86218661  0.32565958    -0.11730
C1025       C  0.07242434  0.87142904  0.31977671     0.02940
C1026       C  0.08250691  0.88375835  0.28544759    -0.11150
H1027       H  0.00049821  0.89783917  0.24916176     0.08530
H1028       H  0.02830448  0.84887523  0.35019018     0.06060
H1029       H  0.11046866  0.88713814  0.27863420     0.05910
C1030       C  0.10012148  0.86973798  0.34892541     0.02950
C1031       C  0.12696678  0.89634561  0.35052363    -0.13200
C1032       C  0.15364543  0.89592034  0.37725044     0.00450
C1033       C  0.15270916  0.86878751  0.40361802    -0.11730
C1034       C  0.12575709  0.84227405  0.40302209     0.02940
C1035       C  0.09989235  0.84269301  0.37534447    -0.11150
H1036       H  0.12731082  0.91761000  0.33066862     0.08530
H1037       H  0.17283811  0.86835802  0.42470186     0.06060
H1038       H  0.07953195  0.82203761  0.37465902     0.05910
C1039       C  0.24627578  0.93912654  0.37862199     0.02950
C1040       C  0.21895283  0.91321019  0.38043996    -0.13200
C1041       C  0.18257556  0.92363699  0.37694084     0.00450
C1042       C  0.17420332  0.96044380  0.37107550    -0.11730
C1043       C  0.20165049  0.98622798  0.36979652     0.02940
C1044       C  0.23712420  0.97530250  0.37420774    -0.11150
H1045       H  0.22599887  0.88511612  0.38388306     0.08530
H1046       H  0.14665572  0.96895955  0.36721900     0.06060
H1047       H  0.25817591  0.99532876  0.37305542     0.05910
C1048       C  0.12184238  0.79905111  0.49546394     0.02950
C1049       C  0.11970554  0.76272650  0.48613273    -0.13200
C1050       C  0.12079695  0.75150932  0.45037089     0.00450
C1051       C  0.12276232  0.77757108  0.42303313    -0.11730
C1052       C  0.12400892  0.81456271  0.43176490     0.02940
C1053       C  0.12361663  0.82507493  0.46817347    -0.11150
H1054       H  0.11855537  0.74263836  0.50721894     0.08530
H1055       H  0.12377926  0.76913683  0.39522101     0.06060
H1056       H  0.12511778  0.85330348  0.47525130     0.05910
C1057       C  0.26167692  0.04783257  0.88432850     0.02950
C1058       C  0.28683037  0.07576486  0.88507025    -0.13200
C1059       C  0.32307347  0.06857722  0.87661022     0.00450
C1060       C  0.33357827  0.03298916  0.86811814    -0.11730
C1061       C  0.30817554  0.00545562  0.86757594     0.02940
C1062       C  0.27257549  0.01316585  0.87536063    -0.11150
H1063       H  0.27811448  0.10276299  0.89174582     0.08530
H1064       H  0.36116514  0.02670394  0.86165045     0.06060
H1065       H  0.25292895  0.99171052  0.87447892     0.05910
C1066       C  0.40135563  0.12600366  0.84678028     0.02950
C1067       C  0.37524369  0.09901960  0.84808313    -0.13200
C1068       C  0.34986810  0.09801887  0.87567789     0.00450
C1069       C  0.35033406  0.12494552  0.90213616    -0.11730
C1070       C  0.37666197  0.15204233  0.90206069     0.02940
C1071       C  0.40233354  0.15194523  0.87427329    -0.11150
H1072       H  0.37464063  0.07855627  0.82739630     0.08530
H1073       H  0.33011749  0.12453341  0.92279691     0.06060
H1074       H  0.42305070  0.17216465  0.87374403     0.05910
C1075       C  0.39208555  0.24145577  0.94984043     0.02950
C1076       C  0.39043410  0.21528647  0.92289271    -0.13200
C1077       C  0.37726961  0.18043748  0.93066294     0.00450
C1078       C  0.36434559  0.17338109  0.96581851    -0.11730
C1079       C  0.36539410  0.20035412  0.99222869     0.02940
C1080       C  0.38037666  0.23345154  0.98415007    -0.11150
H1081       H  0.39903323  0.22243972  0.89616399     0.08530
H1082       H  0.35362146  0.14737280  0.97290241     0.06060
H1083       H  0.38159050  0.25409666  0.00476839     0.05910
C1084       C  0.44019010  0.11619283  0.75313002     0.02950
C1085       C  0.41558878  0.11804464  0.78129312    -0.13200
C1086       C  0.42731412  0.12662605  0.81648329     0.00450
C1087       C  0.46383780  0.13517004  0.82229966    -0.11730
C1088       C  0.48828395  0.13324916  0.79379513     0.02940
C1089       C  0.47637359  0.12221503  0.76002582    -0.11150
H1090       H  0.38759110  0.11270268  0.77575629     0.08530
H1091       H  0.47331652  0.14304635  0.84866240     0.06060
H1092       H  0.49538773  0.12028883  0.73815247     0.05910
O1093       O  0.94542263  0.96574905  0.53163476    -0.88530
C1094       C  0.04984722  0.93988812  0.52321205     0.87500
Mg1095     Mg  0.91389018  0.97515813  0.48528879     1.58150
O1096       O  0.03138096  0.02683414  0.55075683    -0.88260
O1097       O  0.96194299  0.99387380  0.58084449    -0.75590
C1098       C  0.01384638  0.07611006  0.38084031     0.92550
O1099       O  0.98634995  0.92055343  0.47158945    -0.75400
O1100       O  0.98632233  0.05671755  0.38294060    -0.82910
Mg1101     Mg  0.97581778  0.91754199  0.53203942     1.57960
C1102       C  0.08146343  0.11451328  0.51405615     0.92480
O1103       O  0.96349495  0.91274316  0.59259081    -0.81170
H1104       H  0.00646763  0.06095694  0.58395876    -0.06510
C1105       C  0.05666238  0.01268573  0.44751652     0.87410
O1106       O  0.92246952  0.03606439  0.49335448    -0.75680
O1107       O  0.02244816  0.94870902  0.53984842    -0.88440
O1108       O  0.08576866  0.08583728  0.53235461    -0.81250
C1109       C  0.11198509  0.98279996  0.58467701     0.92590
C1110       C  0.97941268  0.92010073  0.62201762     0.92440
Mg1111     Mg  0.01935879  0.08037092  0.47119308     1.57950
O1112       O  0.03080176  0.08520083  0.40928614    -0.81180
O1113       O  0.00841791  0.07819923  0.53230149    -0.75420
O1114       O  0.08267053  0.96675347  0.59112935    -0.81260
O1115       O  0.92779525  0.88335235  0.51983822    -0.82970
O1116       O  0.91306424  0.02852820  0.41024172    -0.81290
C1117       C  0.01531459  0.05540040  0.55695994     0.86880
O1118       O  0.97198009  0.04962782  0.46435138    -0.88430
O1119       O  0.04931707  0.03206381  0.47350513    -0.88540
O1120       O  0.03260364  0.00174200  0.42585149    -0.75590
Mg1121     Mg  0.02248809  0.98219037  0.58548240     1.57970
O1122       O  0.11209060  0.01405983  0.57107355    -0.82970
H1123       H  0.91050524  0.99198611  0.56287146    -0.06690
O1124       O  0.96122818  0.97126485  0.45469157    -0.88240
H1125       H  0.98571016  0.93846596  0.42020419    -0.06520
H1126       H  0.94194602  0.08679038  0.48900671    -0.06690
C1127       C  0.97753212  0.94315872  0.44753250     0.86860
C1128       C  0.93798630  0.98378579  0.55860094     0.87440
C1129       C  0.94534460  0.05874563  0.48205437     0.87490
H1130       H  0.08408693  0.00401700  0.44372098    -0.06670
O1131       O  0.07309091  0.96290326  0.51340222    -0.75700
Mg1132     Mg  0.97223929  0.01400219  0.42017784     1.58000
H1133       H  0.05389543  0.91189625  0.51636377    -0.06690
C1134       C  0.91148640  0.88456148  0.48981397     0.92480
O1135       O  0.87815867  0.98932002  0.43828030    -0.82930
C1136       C  0.88230249  0.01594022  0.41733980     0.92540
O1137       O  0.00898588  0.93693368  0.62286913    -0.82910
Mg1138     Mg  0.07929987  0.02453279  0.52148974     1.58180
O1139       O  0.90521980  0.91427287  0.47376507    -0.81250
O1140       O  0.06861375  0.11343258  0.48240483    -0.82940
C1141       C  0.05618364  0.37808458  0.74281784     0.02950
C1142       C  0.02018671  0.37210634  0.73479308    -0.13200
C1143       C  0.00825454  0.36872013  0.69940076     0.00450
C1144       C  0.03327451  0.36940062  0.67135714    -0.11730
C1145       C  0.07008562  0.37423846  0.67896271     0.02940
C1146       C  0.08129145  0.37908265  0.71496914    -0.11150
H1147       H  0.00084454  0.37170347  0.75644008     0.08530
H1148       H  0.02408537  0.36678444  0.64384951     0.06060
H1149       H  0.10920442  0.38403845  0.72130563     0.05910
C1150       C  0.09667152  0.37542719  0.64939247     0.02950
C1151       C  0.12263857  0.40266225  0.64874150    -0.13200
C1152       C  0.14853676  0.40378248  0.62158367     0.00450
C1153       C  0.14843924  0.37697438  0.59497631    -0.11730
C1154       C  0.12257157  0.34950450  0.59479206     0.02940
C1155       C  0.09653987  0.34920171  0.62210012    -0.11150
H1156       H  0.12279618  0.42296068  0.66961557     0.08530
H1157       H  0.16877263  0.37750080  0.57438879     0.06060
H1158       H  0.07627255  0.32845445  0.62239111     0.05910
C1159       C  0.11694190  0.25823744  0.54798743     0.02950
C1160       C  0.11454208  0.28491386  0.57457426    -0.13200
C1161       C  0.12345716  0.32103774  0.56641611     0.00450
C1162       C  0.13381828  0.32968935  0.53087894    -0.11730
C1163       C  0.13614866  0.30266399  0.50473844     0.02940
C1164       C  0.12831352  0.26732598  0.51374668    -0.11150
H1165       H  0.10588653  0.27742870  0.60121337     0.08530
H1166       H  0.13989667  0.35712269  0.52340372     0.06060
H1167       H  0.12983203  0.24659704  0.49324641     0.05910
C1168       C  0.23793761  0.45155121  0.61319097     0.02950
C1169       C  0.21209566  0.42435100  0.61321773    -0.13200
C1170       C  0.17601207  0.43265997  0.62126149     0.00450
C1171       C  0.16638310  0.46873655  0.62881617    -0.11730
C1172       C  0.19252478  0.49576032  0.62844786     0.02940
C1173       C  0.22799531  0.48677784  0.62112718    -0.11150
H1174       H  0.22014387  0.39700949  0.60710201     0.08530
H1175       H  0.13886489  0.47582629  0.63475418     0.06060
H1176       H  0.24820239  0.50770574  0.62107948     0.05910
O1177       O  0.30346752  0.27718133  0.21885241    -0.88530
C1178       C  0.20107843  0.27177151  0.18870550     0.87500
Mg1179     Mg  0.33247135  0.22812702  0.22557595     1.58150
O1180       O  0.21636711  0.30091324  0.27581416    -0.88260
O1181       O  0.28846388  0.32746403  0.24579655    -0.75590
C1182       C  0.23123253  0.13031490  0.33083558     0.92550
O1183       O  0.26248422  0.21929223  0.17159471    -0.75400
O1184       O  0.26083680  0.12913920  0.31410869    -0.82910
Mg1185     Mg  0.27603738  0.28048871  0.16958830     1.57960
C1186       C  0.16584092  0.26644447  0.36202203     0.92480
O1187       O  0.29094372  0.34145183  0.16654380    -0.81170
H1188       H  0.24029184  0.33465823  0.31020861    -0.06510
C1189       C  0.19135317  0.19528278  0.26490715     0.87410
O1190       O  0.32738289  0.23680635  0.28719758    -0.75680
O1191       O  0.22776273  0.28943598  0.19788714    -0.88440
O1192       O  0.16079250  0.28316551  0.33249414    -0.81250
C1193       C  0.13803803  0.33731951  0.22885555     0.92590
C1194       C  0.27483452  0.37111234  0.17289479     0.92440
Mg1195     Mg  0.22833461  0.22159918  0.33085946     1.57950
O1196       O  0.21517904  0.16012503  0.33699042    -0.81180
O1197       O  0.23984196  0.28266653  0.32700114    -0.75420
O1198       O  0.16881249  0.34451971  0.21617449    -0.81260
O1199       O  0.32661480  0.26844435  0.13924720    -0.82970
O1200       O  0.33548436  0.15974273  0.28402888    -0.81290
C1201       C  0.23216766  0.30735291  0.30446650     0.86880
O1202       O  0.27579569  0.21218836  0.30137307    -0.88430
O1203       O  0.19976033  0.22269218  0.28186415    -0.88540
O1204       O  0.21443193  0.17147422  0.25640357    -0.75590
Mg1205     Mg  0.22825485  0.33491332  0.23196887     1.57970
O1206       O  0.13418511  0.31755873  0.25643163    -0.82970
H1207       H  0.33891895  0.30654748  0.24667651    -0.06690
O1208       O  0.28387472  0.20038469  0.22347906    -0.88240
H1209       H  0.25888446  0.16749959  0.18892437    -0.06520
H1210       H  0.30790484  0.23505702  0.33806121    -0.06690
C1211       C  0.26809857  0.19444554  0.19467051     0.86860
C1212       C  0.31161113  0.30371678  0.23724762     0.87440
C1213       C  0.30368713  0.22810152  0.31017203     0.87490
H1214       H  0.16381824  0.19186382  0.25647074    -0.06670
O1215       O  0.17792814  0.26089487  0.21123644    -0.75700
Mg1216     Mg  0.27491945  0.16598611  0.26844751     1.58000
H1217       H  0.19791485  0.26441069  0.16079943    -0.06690
C1218       C  0.33468851  0.23545165  0.13639519     0.92480
O1219       O  0.36328111  0.17715263  0.23504390    -0.82930
C1220       C  0.36436040  0.16521135  0.26685765     0.92540
O1221       O  0.24410485  0.37188253  0.18735640    -0.82910
Mg1222     Mg  0.16907319  0.27010340  0.27174702     1.58180
O1223       O  0.33721394  0.21606188  0.16441437    -0.81250
O1224       O  0.17892910  0.23483262  0.36257524    -0.82940
C1225       C  0.85258636  0.40255543  0.12600863     0.02950
C1226       C  0.87926103  0.40100708  0.15268301    -0.13200
C1227       C  0.90493924  0.37326684  0.15270727     0.00450
C1228       C  0.90377613  0.34686361  0.12564572    -0.11730
C1229       C  0.87709442  0.34801605  0.09878560     0.02940
C1230       C  0.85155375  0.37589613  0.09933225    -0.11150
H1231       H  0.88021193  0.42156246  0.17330790     0.08530
H1232       H  0.92380015  0.32565592  0.12534648     0.06060
H1233       H  0.83096164  0.37707328  0.07871396     0.05910
C1234       C  0.87769520  0.25811118  0.04977772     0.02950
C1235       C  0.87890881  0.28365635  0.07760169    -0.13200
C1236       C  0.87616456  0.32074802  0.06962316     0.00450
C1237       C  0.87208174  0.33175956  0.03350375    -0.11730
C1238       C  0.87123625  0.30606070  0.00597615     0.02940
C1239       C  0.87415397  0.26968536  0.01441266    -0.11150
H1240       H  0.88191774  0.27472496  0.10513626     0.08530
H1241       H  0.86960482  0.36002646  0.02681458     0.06060
H1242       H  0.87346937  0.24992499  0.99295249     0.05910
C1243       C  0.99675060  0.37260691  0.19703446     0.02950
C1244       C  0.98722400  0.37400119  0.23320675    -0.13200
C1245       C  0.95140192  0.37431560  0.24370787     0.00450
C1246       C  0.92435832  0.37367766  0.21730981    -0.11730
C1247       C  0.93341967  0.37261128  0.18059078     0.02940
C1248       C  0.96980092  0.37192566  0.17059885    -0.11150
H1249       H  0.00810289  0.37447321  0.25360455     0.08530
H1250       H  0.89648021  0.37418953  0.22527420     0.06060
H1251       H  0.97708898  0.37097520  0.14250564     0.05910
C1252       C  0.81221904  0.49641433  0.12485165     0.02950
C1253       C  0.77609951  0.48830697  0.11983742    -0.13200
C1254       C  0.76407092  0.45280011  0.12016246     0.00450
C1255       C  0.78919104  0.42469187  0.12266101    -0.11730
C1256       C  0.82609603  0.43232672  0.12533815     0.02940
C1257       C  0.83745570  0.46842810  0.12734737    -0.11150
H1258       H  0.75673252  0.51011837  0.11803900     0.08530
H1259       H  0.78010775  0.39705412  0.12283591     0.06060
H1260       H  0.86553055  0.47472134  0.13125730     0.05910
C1261       C  0.85134706  0.90426276  0.88320565     0.02950
C1262       C  0.87820282  0.90567212  0.85699759    -0.13200
C1263       C  0.90534815  0.87934904  0.85583866     0.00450
C1264       C  0.90546533  0.85144330  0.88126890    -0.11730
C1265       C  0.87896429  0.84982692  0.90776525     0.02940
C1266       C  0.85211707  0.87637191  0.90864752    -0.11150
H1267       H  0.87774030  0.92702147  0.83720278     0.08530
H1268       H  0.92612439  0.83087693  0.88038930     0.06060
H1269       H  0.83157890  0.87511169  0.92904914     0.05910
C1270       C  0.99546975  0.87505338  0.80915206     0.02950
C1271       C  0.98493684  0.88078187  0.77368345    -0.13200
C1272       C  0.94916423  0.88678964  0.76467306     0.00450
C1273       C  0.92306279  0.88680643  0.79148714    -0.11730
C1274       C  0.93304953  0.88044359  0.82753758     0.02940
C1275       C  0.96953547  0.87467064  0.83625773    -0.11150
H1276       H  0.00499503  0.88080916  0.75268840     0.08530
H1277       H  0.89526675  0.89146303  0.78424774     0.06060
H1278       H  0.97770868  0.86989592  0.86380276     0.05910
C1279       C  0.80018185  0.99296725  0.87822526     0.02950
C1280       C  0.76523081  0.98082393  0.88264327    -0.13200
C1281       C  0.75801785  0.94444948  0.88767532     0.00450
C1282       C  0.78612369  0.91946025  0.88810232    -0.11730
C1283       C  0.82173177  0.93103364  0.88328924     0.02940
C1284       C  0.82862728  0.96806968  0.87832847    -0.11150
H1285       H  0.74324612  0.00005647  0.88242508     0.08530
H1286       H  0.78020888  0.89125119  0.89211723     0.06060
H1287       H  0.85577368  0.97748125  0.87456550     0.05910
C1288       C  0.88260907  0.75667167  0.94952586     0.02950
C1289       C  0.87973744  0.76543637  0.98581149    -0.13200
C1290       C  0.87562492  0.80097870  0.99681823     0.00450
C1291       C  0.87532687  0.82863076  0.97134540    -0.11730
C1292       C  0.87926090  0.82049218  0.93463123     0.02940
C1293       C  0.88271329  0.78425420  0.92377508    -0.11150
H1294       H  0.87968717  0.74416814  0.00577388     0.08530
H1295       H  0.87172207  0.85621297  0.98006707     0.06060
H1296       H  0.88514046  0.77754838  0.89559212     0.05910
O1297       O  0.19825919  0.72574353  0.71627529    -0.88530
C1298       C  0.30308024  0.73184304  0.69004654     0.87500
Mg1299     Mg  0.16652424  0.77133997  0.72835892     1.58150
O1300       O  0.28652408  0.69777228  0.77504047    -0.88260
O1301       O  0.21529458  0.67487891  0.74167468    -0.75590
C1302       C  0.27339799  0.86466769  0.83307829     0.92550
O1303       O  0.23970809  0.78765196  0.67534381    -0.75400
O1304       O  0.24187858  0.86624360  0.82018228    -0.82910
Mg1305     Mg  0.22816044  0.72738042  0.66815655     1.57960
C1306       C  0.33652951  0.73003462  0.86366696     0.92480
O1307       O  0.21339599  0.66718926  0.65986460    -0.81170
H1308       H  0.26202182  0.66263361  0.80729398    -0.06510
C1309       C  0.30980436  0.80226979  0.76569043     0.87410
O1310       O  0.17547655  0.75911219  0.78847065    -0.75680
O1311       O  0.27531259  0.71575610  0.69847115    -0.88440
O1312       O  0.34124427  0.71279181  0.83446828    -0.81250
C1313       C  0.36536331  0.66454883  0.72854966     0.92590
C1314       C  0.22813165  0.63663057  0.66534797     0.92440
Mg1315     Mg  0.27455060  0.77470983  0.83166960     1.57950
O1316       O  0.28945247  0.83472807  0.83749986    -0.81180
O1317       O  0.26262827  0.71379602  0.82647177    -0.75420
O1318       O  0.33515094  0.65946176  0.71310130    -0.81260
O1319       O  0.18070994  0.74393771  0.63391058    -0.82970
O1320       O  0.16634935  0.84155419  0.78804799    -0.81290
C1321       C  0.27035616  0.69009900  0.80299441     0.86880
O1322       O  0.22650003  0.78484414  0.80249175    -0.88430
O1323       O  0.30290465  0.77478180  0.78317863    -0.88540
O1324       O  0.28603744  0.82600554  0.75853861    -0.75590
Mg1325     Mg  0.27492124  0.66749358  0.72845117     1.57970
O1326       O  0.36755805  0.67959179  0.75912284    -0.82970
H1327       H  0.16493095  0.69511563  0.74465830    -0.06690
O1328       O  0.21344736  0.80321477  0.72580016    -0.88240
H1329       H  0.23830975  0.83877646  0.69437657    -0.06520
H1330       H  0.19662776  0.75926446  0.83881727    -0.06690
C1331       C  0.23027641  0.81116460  0.69832645     0.86860
C1332       C  0.19156047  0.69841426  0.73407085     0.87440
C1333       C  0.19948266  0.76778361  0.81124143     0.87490
H1334       H  0.33664055  0.80590877  0.75563495    -0.06670
O1335       O  0.32733705  0.73943814  0.71301818    -0.75700
Mg1336     Mg  0.22596572  0.83304187  0.77245823     1.58000
H1337       H  0.30651585  0.74029418  0.66254444    -0.06690
C1338       C  0.16102269  0.77169671  0.63772189     0.92480
O1339       O  0.13161265  0.81752155  0.74556072    -0.82930
C1340       C  0.13555382  0.83544200  0.77437610     0.92540
O1341       O  0.25826167  0.63364920  0.68122118    -0.82910
Mg1342     Mg  0.33406887  0.72772621  0.77363963     1.58180
O1343       O  0.15496123  0.78554306  0.66844867    -0.81250
O1344       O  0.32405589  0.76179817  0.86342444    -0.82940
C1345       C  0.04458718  0.83093128  0.81771623    -0.02030
C1346       C  0.03380422  0.86712472  0.81542554     0.07650
C1347       C  0.05926054  0.89375938  0.80701076    -0.02140
C1348       C  0.09391542  0.88378476  0.79594351    -0.02140
C1349       C  0.10295495  0.84711899  0.79334881     0.07780
C1350       C  0.07901018  0.82083514  0.80629937    -0.02340
Br1351     Br  0.09240594  0.77063304  0.80657854    -0.00890
Br1352     Br  0.01078622  0.79483185  0.83266657    -0.00960
Br1353     Br  0.12744665  0.91992423  0.78066225    -0.00920
Br1354     Br  0.04508914  0.94362780  0.80720512    -0.00900
C1355       C  0.08309284  0.32411539  0.19285578    -0.02030
C1356       C  0.10540588  0.34968789  0.20983513     0.07650
C1357       C  0.09469481  0.38599554  0.21074001    -0.02140
C1358       C  0.05933849  0.39534480  0.20096181    -0.02140
C1359       C  0.03534516  0.36856364  0.18904950     0.07780
C1360       C  0.04850818  0.33397065  0.18131376    -0.02340
Br1361     Br  0.01817113  0.29942107  0.15748803    -0.00890
Br1362     Br  0.09887114  0.27504245  0.18688475    -0.00960
Br1363     Br  0.04245547  0.44406794  0.20663870    -0.00920
Br1364     Br  0.12739664  0.42220073  0.22761151    -0.00900
C1365       C  0.18874443  0.54358317  0.67407683    -0.02030
C1366       C  0.18541238  0.53369785  0.63785653     0.07650
C1367       C  0.18859758  0.56015460  0.61093290    -0.02140
C1368       C  0.20035839  0.59503321  0.61988318    -0.02140
C1369       C  0.20892609  0.60323748  0.65580070     0.07780
C1370       C  0.20093936  0.57812869  0.68312083    -0.02340
Br1371     Br  0.20830632  0.59005895  0.73303845    -0.00890
Br1372     Br  0.18034056  0.50821488  0.71093315    -0.00960
Br1373     Br  0.20851619  0.63008561  0.58279612    -0.00920
Br1374     Br  0.17998434  0.54708814  0.56160097    -0.00900
C1375       C  0.12158737  0.31451667  0.44057716    -0.02030
C1376       C  0.14772785  0.30875708  0.46746098     0.07650
C1377       C  0.18176351  0.29573818  0.45797472    -0.02140
C1378       C  0.18818659  0.28398497  0.42281923    -0.02140
C1379       C  0.16029785  0.28494813  0.39684200     0.07780
C1380       C  0.12781598  0.30263363  0.40514602    -0.02340
Br1381     Br  0.09062301  0.30754489  0.36933555    -0.00890
Br1382     Br  0.07602099  0.33527436  0.45351787    -0.00960
Br1383     Br  0.23533513  0.26582165  0.41114305    -0.00920
Br1384     Br  0.21793112  0.28947731  0.49478794    -0.00900
C1385       C  0.95335027  0.87597956  0.66565633    -0.02030
C1386       C  0.96215386  0.91161129  0.65645192     0.07650
C1387       C  0.95586966  0.93972902  0.68124441    -0.02140
C1388       C  0.94522377  0.93166748  0.71636790    -0.02140
C1389       C  0.94147185  0.89564373  0.72692906     0.07780
C1390       C  0.94310095  0.86803805  0.70107798    -0.02340
Br1391     Br  0.93451377  0.81909078  0.71550228    -0.00890
Br1392     Br  0.95886365  0.83769127  0.63116859    -0.00960
Br1393     Br  0.93955201  0.96948829  0.75142822    -0.00920
Br1394     Br  0.96302863  0.98937736  0.66783490    -0.00900
C1395       C  0.11967868  0.15758224  0.55050422    -0.02030
C1396       C  0.08817340  0.15023001  0.53054192     0.07650
C1397       C  0.06237190  0.17786385  0.52564571    -0.02140
C1398       C  0.07041506  0.21329547  0.53556222    -0.02140
C1399       C  0.10333208  0.22128803  0.55220721     0.07780
C1400       C  0.12705528  0.19317738  0.56151198    -0.02340
Br1401     Br  0.17106000  0.20436836  0.58639066    -0.00890
Br1402     Br  0.15425552  0.12004402  0.56018042    -0.00960
Br1403     Br  0.03872419  0.25209102  0.52150644    -0.00920
Br1404     Br  0.01560510  0.16783692  0.50539260    -0.00900
C1405       C  0.36758308  0.18022057  0.05630377    -0.02030
C1406       C  0.34897942  0.19750375  0.02817617     0.07650
C1407       C  0.32123753  0.22193003  0.03630186    -0.02140
C1408       C  0.31522980  0.23242901  0.07190531    -0.02140
C1409       C  0.33768331  0.21931919  0.09989171     0.07780
C1410       C  0.36206725  0.19102600  0.09221763    -0.02340
Br1411     Br  0.38998248  0.16842469  0.12981336    -0.00890
Br1412     Br  0.40292700  0.14416598  0.04517014    -0.00960
Br1413     Br  0.27563445  0.26472478  0.08133213    -0.00920
Br1414     Br  0.29476907  0.24496594  0.99771124    -0.00900
C1415       C  0.29296510  0.92515108  0.81256838    -0.02030
C1416       C  0.29240746  0.89874358  0.83991436     0.07650
C1417       C  0.30881546  0.90600800  0.87335168    -0.02140
C1418       C  0.32036062  0.94121783  0.88112919    -0.02140
C1419       C  0.31592854  0.96862957  0.85539694     0.07780
C1420       C  0.30520275  0.95989040  0.82032677    -0.02340
Br1421     Br  0.30296343  0.99730226  0.78448468    -0.00890
Br1422     Br  0.27576772  0.91463735  0.76465373    -0.00960
Br1423     Br  0.33897266  0.95316957  0.92795862    -0.00920
Br1424     Br  0.31222713  0.86917019  0.90965686    -0.00900
C1425       C  0.10094341  0.79536133  0.55895403    -0.02030
C1426       C  0.12679287  0.80738074  0.53415952     0.07650
C1427       C  0.16137982  0.81609762  0.54662001    -0.02140
C1428       C  0.17186728  0.80648825  0.58166138    -0.02140
C1429       C  0.14736888  0.78943281  0.60481557     0.07780
C1430       C  0.11124381  0.78630037  0.59431613    -0.02340
Br1431     Br  0.07686284  0.76651683  0.62716600    -0.00890
Br1432     Br  0.05209246  0.78882973  0.54324548    -0.00960
Br1433     Br  0.22063585  0.81468153  0.59694505    -0.00920
Br1434     Br  0.19549139  0.83814320  0.51481444    -0.00900
C1435       C  0.20032655  0.03378832  0.32326400    -0.02030
C1436       C  0.19585954  0.02437899  0.35953222     0.07650
C1437       C  0.19707705  0.05148567  0.38602265    -0.02140
C1438       C  0.20627913  0.08711670  0.37669159    -0.02140
C1439       C  0.21449416  0.09556101  0.34076306     0.07780
C1440       C  0.20936029  0.06922012  0.31383531    -0.02340
Br1441     Br  0.21568894  0.08117723  0.26378772    -0.00890
Br1442     Br  0.19819570  0.99686525  0.28693000    -0.00960
Br1443     Br  0.21096952  0.12325259  0.41350897    -0.00920
Br1444     Br  0.18913841  0.03879493  0.43542504    -0.00900
C1445       C  0.92396625  0.79089950  0.45231547    -0.02030
C1446       C  0.88827788  0.78030182  0.44694174     0.07650
C1447       C  0.86040470  0.80583278  0.45004812    -0.02140
C1448       C  0.86788554  0.84094581  0.46219350    -0.02140
C1449       C  0.90324161  0.85014408  0.47182042     0.07780
C1450       C  0.93148609  0.82548695  0.46525295    -0.02340
Br1451     Br  0.98069699  0.83779431  0.47556243    -0.00890
Br1452     Br  0.96215567  0.75615254  0.44622665    -0.00960
Br1453     Br  0.82942699  0.87501215  0.46903722    -0.00920
Br1454     Br  0.81175066  0.79132366  0.44082155    -0.00900
C1455       C  0.05280401  0.61759735  0.31008950    -0.02030
C1456       C  0.02707736  0.64547200  0.30870998     0.07650
C1457       C  0.03797081  0.68092885  0.30201341    -0.02140
C1458       C  0.07344283  0.68778176  0.29184311    -0.02140
C1459       C  0.09820229  0.65902447  0.28833519     0.07780
C1460       C  0.08850872  0.62433305  0.29996028    -0.02340
Br1461     Br  0.12277916  0.58540839  0.29852407    -0.00890
Br1462     Br  0.03790944  0.56963589  0.32258067    -0.00960
Br1463     Br  0.08733120  0.73669218  0.28148340    -0.00920
Br1464     Br  0.00295970  0.71938220  0.30265882    -0.00900
C1465       C  0.42859906  0.84591879  0.25154712    -0.02030
C1466       C  0.40187558  0.84792783  0.22485677     0.07650
C1467       C  0.41262530  0.85593184  0.18919944    -0.02140
C1468       C  0.44947686  0.86257934  0.18160076    -0.02140
C1469       C  0.47604541  0.85577688  0.20823794     0.07780
C1470       C  0.46445395  0.84315472  0.24203644    -0.02340
Br1471     Br  0.49684126  0.82013807  0.27573254    -0.00890
Br1472     Br  0.41699881  0.85063107  0.30180327    -0.00960
Br1473     Br  0.46274494  0.88085740  0.13522641    -0.00920
Br1474     Br  0.37780703  0.85765454  0.15082489    -0.00900
C1475       C  0.17043960  0.68060490  0.04429915    -0.02030
C1476       C  0.13442174  0.68247516  0.03343221     0.07650
C1477       C  0.10778555  0.69042791  0.05899103    -0.02140
C1478       C  0.11763080  0.70278447  0.09339418    -0.02140
C1479       C  0.15417793  0.70661850  0.10213309     0.07780
C1480       C  0.18047944  0.69308971  0.07846651    -0.02340
Br1481     Br  0.23050752  0.69316471  0.09186287    -0.00890
Br1482     Br  0.20614963  0.66500926  0.01049778    -0.00960
Br1483     Br  0.08135796  0.71794141  0.12685517    -0.00920
Br1484     Br  0.05804532  0.68749844  0.04521079    -0.00900
C1485       C  0.71583208  0.06886398  0.19169081    -0.02030
C1486       C  0.71374466  0.09498196  0.16414083     0.07650
C1487       C  0.69569994  0.08669555  0.13180762    -0.02140
C1488       C  0.68431733  0.05116758  0.12537297    -0.02140
C1489       C  0.69140787  0.02407429  0.15093139     0.07780
C1490       C  0.70511065  0.03339667  0.18486733    -0.02340
Br1491     Br  0.71352618  0.99624678  0.22017584    -0.00890
Br1492     Br  0.73374068  0.08119482  0.23885650    -0.00960
Br1493     Br  0.66274947  0.03841209  0.08000080    -0.00920
Br1494     Br  0.68969207  0.12267713  0.09493030    -0.00900
C1495       C  0.80543573  0.41047551  0.36281158    -0.02030
C1496       C  0.78347602  0.40262498  0.33275904     0.07650
C1497       C  0.77587353  0.43010624  0.30748647    -0.02140
C1498       C  0.78475840  0.46585006  0.31525814    -0.02140
C1499       C  0.80285547  0.47425328  0.34736934     0.07780
C1500       C  0.81507157  0.44642773  0.37005474    -0.02340
Br1501     Br  0.84141568  0.45831391  0.41312078    -0.00890
Br1502     Br  0.82000198  0.37307137  0.39576698    -0.00960
Br1503     Br  0.76761495  0.50416897  0.28446462    -0.00920
Br1504     Br  0.75322245  0.41935463  0.26189369    -0.00900
C1505       C  0.22819796  0.42156304  0.82400361    -0.02030
C1506       C  0.21762806  0.39498924  0.84922577     0.07650
C1507       C  0.19582423  0.40535056  0.87851326    -0.02140
C1508       C  0.18705434  0.44195436  0.88376302    -0.02140
C1509       C  0.19880553  0.46809582  0.85923283     0.07780
C1510       C  0.21777541  0.45753173  0.82853334    -0.02340
Br1511     Br  0.23266290  0.49381238  0.79442719    -0.00890
Br1512     Br  0.25807838  0.41062439  0.78324093    -0.00960
Br1513     Br  0.16160591  0.45697233  0.92609898    -0.00920
Br1514     Br  0.18071681  0.37043267  0.91362177    -0.00900
C1515       C  0.21048299  0.94472563  0.10640232    -0.02030
C1516       C  0.19509384  0.96767250  0.13247497     0.07650
C1517       C  0.18342699  0.95290141  0.16513732    -0.02140
C1518       C  0.19262745  0.91718854  0.17404310    -0.02140
C1519       C  0.21275591  0.89592160  0.14993437     0.07780
C1520       C  0.21912383  0.90881893  0.11513182    -0.02340
Br1521     Br  0.24146323  0.87785452  0.08039092    -0.00890
Br1522     Br  0.22212803  0.96349130  0.05962351    -0.00960
Br1523     Br  0.17898156  0.89814533  0.22003752    -0.00920
Br1524     Br  0.15752580  0.98237238  0.19886899    -0.00900
C1525       C  0.17669550  0.19591741  0.95681812    -0.02030
C1526       C  0.14137252  0.18952674  0.96740639     0.07650
C1527       C  0.11398163  0.18707021  0.94137424    -0.02140
C1528       C  0.12145500  0.19453972  0.90503689    -0.02140
C1529       C  0.15615354  0.20569557  0.89512410     0.07780
C1530       C  0.18404380  0.20497909  0.92109864    -0.02340
Br1531     Br  0.23250077  0.21722600  0.90904491    -0.00890
Br1532     Br  0.21439004  0.19476289  0.99255885    -0.00960
Br1533     Br  0.08355285  0.19244857  0.86972938    -0.00920
Br1534     Br  0.06606930  0.17536412  0.95628554    -0.00900
C1535       C  0.01895238  0.07750844  0.27894722    -0.02030
C1536       C  0.04885054  0.09924604  0.27250951     0.07650
C1537       C  0.07043764  0.11017378  0.30154194    -0.02140
C1538       C  0.06043648  0.10148092  0.33711805    -0.02140
C1539       C  0.02638215  0.08553682  0.34379094     0.07780
C1540       C  0.00519220  0.07479862  0.31357692    -0.02340
Br1541     Br  0.95505693  0.06101732  0.31633975    -0.00890
Br1542     Br  0.99433703  0.05485427  0.23896295    -0.00960
Br1543     Br  0.09390953  0.11237212  0.37533673    -0.00920
Br1544     Br  0.11316390  0.13749157  0.29238111    -0.00900
C1545       C  0.94674349  0.13338942  0.17672541    -0.02030
C1546       C  0.97272181  0.15897930  0.18686116     0.07650
C1547       C  0.96177782  0.19138272  0.20288315    -0.02140
C1548       C  0.92596017  0.19621660  0.21297430    -0.02140
C1549       C  0.90123066  0.16769228  0.20897342     0.07780
C1550       C  0.91101331  0.13732191  0.18840930    -0.02340
Br1551     Br  0.87695778  0.09953991  0.17914871    -0.00890
Br1552     Br  0.96112328  0.09119140  0.15024439    -0.00960
Br1553     Br  0.91139570  0.24208028  0.23268811    -0.00920
Br1554     Br  0.99723781  0.22674393  0.21594112    -0.00900
C1555       C  0.80984125  0.22309634  0.42202334    -0.02030
C1556       C  0.83871600  0.21939079  0.39777866     0.07650
C1557       C  0.87033472  0.20172081  0.40920440    -0.02140
C1558       C  0.87455891  0.19197115  0.44568002    -0.02140
C1559       C  0.84722779  0.19985710  0.47053815     0.07780
C1560       C  0.81426358  0.21367047  0.45820640    -0.02340
Br1561     Br  0.77646074  0.22356538  0.49210513    -0.00890
Br1562     Br  0.76391489  0.24178584  0.40644456    -0.00960
Br1563     Br  0.91889745  0.17096657  0.46238398    -0.00920
Br1564     Br  0.90895649  0.19384199  0.37594103    -0.00900
C1565       C  0.05359777  0.12824746  0.67518068    -0.02030
C1566       C  0.02738766  0.15246533  0.68783216     0.07650
C1567       C  0.03801064  0.18391155  0.70584114    -0.02140
C1568       C  0.07431412  0.18967539  0.71389618    -0.02140
C1569       C  0.10059808  0.16407672  0.70368357     0.07780
C1570       C  0.09019330  0.13415806  0.68272712    -0.02340
Br1571     Br  0.12529477  0.09926226  0.66719755    -0.00890
Br1572     Br  0.03888645  0.08479017  0.65122601    -0.00960
Br1573     Br  0.08705787  0.23292944  0.73930121    -0.00920
Br1574     Br  0.00189164  0.21711007  0.72302337    -0.00900
C1575       C  0.86968597  0.65817752  0.96054539    -0.02030
C1576       C  0.90581279  0.64736133  0.95961954     0.07650
C1577       C  0.93157258  0.67022421  0.94401769    -0.02140
C1578       C  0.92208866  0.70542168  0.93392973    -0.02140
C1579       C  0.88730533  0.71817763  0.94073318     0.07780
C1580       C  0.86041699  0.69370969  0.95109037    -0.02340
Br1581     Br  0.81159970  0.71026115  0.95548331    -0.00890
Br1582     Br  0.83377123  0.62554928  0.97792979    -0.00960
Br1583     Br  0.95754664  0.73735122  0.91427121    -0.00920
Br1584     Br  0.98053385  0.65453612  0.93859447    -0.00900
C1585       C  0.95051560  0.57386660  0.20971149    -0.02030
C1586       C  0.93992969  0.60907746  0.21850164     0.07650
C1587       C  0.93655416  0.63514871  0.19121073    -0.02140
C1588       C  0.94830894  0.62733866  0.15609089    -0.02140
C1589       C  0.96341097  0.59330714  0.14850624     0.07780
C1590       C  0.96193944  0.56584551  0.17480007    -0.02340
Br1591     Br  0.97633076  0.51707893  0.16372093    -0.00890
Br1592     Br  0.95376764  0.53787313  0.24701075    -0.00960
Br1593     Br  0.94677067  0.66423755  0.11976047    -0.00920
Br1594     Br  0.91888094  0.68241729  0.20318769    -0.00900
C1595       C  0.04943713  0.43445781  0.82415695    -0.02030
C1596       C  0.04455430  0.40746769  0.85040233     0.07650
C1597       C  0.05458855  0.37171680  0.84270487    -0.02140
C1598       C  0.06431257  0.36228844  0.80740322    -0.02140
C1599       C  0.06454902  0.38859173  0.78017459     0.07780
C1600       C  0.06005045  0.42498862  0.78930269    -0.02340
Br1601     Br  0.06490952  0.46131240  0.75270916    -0.00890
Br1602     Br  0.04012788  0.48440219  0.83520016    -0.00960
Br1603     Br  0.07479128  0.31309790  0.79533134    -0.00920
Br1604     Br  0.05163085  0.33520787  0.87930321    -0.00900
C1605       C  0.13713993  0.30726411  0.06179594    -0.02030
C1606       C  0.11048511  0.28122415  0.05555337     0.07650
C1607       C  0.07625583  0.29214259  0.04398230    -0.02140
C1608       C  0.06985235  0.32815147  0.03467506    -0.02140
C1609       C  0.09798912  0.35357549  0.03638458     0.07780
C1610       C  0.13100425  0.34353916  0.05214464    -0.02340
Br1611     Br  0.16884117  0.37832599  0.05720517    -0.00890
Br1612     Br  0.18282972  0.29237287  0.08075360    -0.00960
Br1613     Br  0.02244118  0.34176035  0.01834638    -0.00920
Br1614     Br  0.03945227  0.25646789  0.03667050    -0.00900
C1615       C  0.30230949  0.46759148  0.18652447    -0.02030
C1616       C  0.31115074  0.47784811  0.15138162     0.07650
C1617       C  0.31483701  0.45136011  0.12455829    -0.02140
C1618       C  0.30536799  0.41535671  0.13179164    -0.02140
C1619       C  0.29255158  0.40600487  0.16607990     0.07780
C1620       C  0.29373649  0.43168923  0.19406829    -0.02340
Br1621     Br  0.28274564  0.41818703  0.24286874    -0.00890
Br1622     Br  0.29709198  0.50396031  0.22311333    -0.00960
Br1623     Br  0.30662835  0.38003687  0.09392705    -0.00920
Br1624     Br  0.32942690  0.46542610  0.07712682    -0.00900
C1625       C  0.16028578  0.54725890  0.13540706    -0.02030
C1626       C  0.15217035  0.54354173  0.09864331     0.07650
C1627       C  0.17652473  0.55647143  0.07278625    -0.02140
C1628       C  0.21055975  0.56858903  0.08350520    -0.02140
C1629       C  0.22058313  0.56717232  0.11985966     0.07780
C1630       C  0.19454583  0.55921258  0.14599151    -0.02340
Br1631     Br  0.20735346  0.56171020  0.19612750    -0.00890
Br1632     Br  0.12602819  0.53257954  0.17100614    -0.00960
Br1633     Br  0.24515805  0.58320940  0.04825638    -0.00920
Br1634     Br  0.16416223  0.55613285  0.02242406    -0.00900
C1635       C  0.31385153  0.71476178  0.92445311    -0.02030
C1636       C  0.34185200  0.71254562  0.89907133     0.07650
C1637       C  0.37481085  0.69667455  0.90920999    -0.02140
C1638       C  0.38118980  0.68779893  0.94558859    -0.02140
C1639       C  0.35470396  0.69482068  0.97154747     0.07780
C1640       C  0.32049006  0.70646832  0.96057481    -0.02340
Br1641     Br  0.28443274  0.71643954  0.99624496    -0.00890
Br1642     Br  0.26633234  0.73045949  0.91050542    -0.00960
Br1643     Br  0.42733129  0.66976464  0.96078907    -0.00920
Br1644     Br  0.41225499  0.69036516  0.87434757    -0.00900
C1645       C  0.81165635  0.43325802  0.87147666    -0.02030
C1646       C  0.78589426  0.43694636  0.89876229     0.07650
C1647       C  0.79673925  0.44616219  0.93368129    -0.02140
C1648       C  0.83221044  0.45655570  0.94025883    -0.02140
C1649       C  0.85694489  0.45812235  0.91165639     0.07780
C1650       C  0.84736600  0.44389292  0.87788266    -0.02340
Br1651     Br  0.88177353  0.44252464  0.83954923    -0.00890
Br1652     Br  0.79676487  0.41746663  0.82445735    -0.00960
Br1653     Br  0.84597823  0.47020423  0.98842319    -0.00920
Br1654     Br  0.76136830  0.44982636  0.97112889    -0.00900
C1655       C  0.44755338  0.38056600  0.82377087    -0.02030
C1656       C  0.47448858  0.35583116  0.81425336     0.07650
C1657       C  0.46516274  0.32256999  0.79928622    -0.02140
C1658       C  0.42949887  0.31555176  0.78968302    -0.02140
C1659       C  0.40246277  0.34143970  0.79665862     0.07780
C1660       C  0.41140186  0.37316191  0.81560275    -0.02340
Br1661     Br  0.37500457  0.40816325  0.82746243    -0.00890
Br1662     Br  0.46088133  0.42589672  0.84489904    -0.00960
Br1663     Br  0.41877471  0.27054590  0.76633361    -0.00920
Br1664     Br  0.50278708  0.28857112  0.78862441    -0.00900
C1665       C  0.62137452  0.30662633  0.05450415    -0.02030
C1666       C  0.64780888  0.29789795  0.02901566     0.07650
C1667       C  0.68034635  0.28248731  0.04057619    -0.02140
C1668       C  0.68504657  0.27240578  0.07658301    -0.02140
C1669       C  0.65681949  0.27705662  0.10151227     0.07780
C1670       C  0.62579606  0.29624529  0.09080256    -0.02340
Br1671     Br  0.58810554  0.30563960  0.12473914    -0.00890
Br1672     Br  0.57805969  0.33023380  0.03889211    -0.00960
Br1673     Br  0.73062352  0.25188395  0.09093394    -0.00920
Br1674     Br  0.71715982  0.27170022  0.00584953    -0.00900
C1675       C  0.67490648  0.94811040  0.93991445    -0.02030
C1676       C  0.65022718  0.95502998  0.91179224     0.07650
C1677       C  0.65939143  0.94638716  0.87619995    -0.02140
C1678       C  0.69491097  0.93636393  0.86829615    -0.02140
C1679       C  0.72077942  0.93493202  0.89595277     0.07780
C1680       C  0.71010233  0.93765783  0.93190543    -0.02340
Br1681     Br  0.74522823  0.93176050  0.96971996    -0.00890
Br1682     Br  0.66145785  0.95505952  0.98941601    -0.00960
Br1683     Br  0.70949533  0.92819849  0.81943967    -0.00920
Br1684     Br  0.62472022  0.95215442  0.83805673    -0.00900
C1685       C  0.29115469  0.06620851  0.07946425    -0.02030
C1686       C  0.28192124  0.06392614  0.11595492     0.07650
C1687       C  0.30888910  0.05792789  0.14197024    -0.02140
C1688       C  0.34384296  0.04871499  0.13115116    -0.02140
C1689       C  0.35139771  0.04532815  0.09432248     0.07780
C1690       C  0.32578726  0.05647872  0.06858304    -0.02340
Br1691     Br  0.33744324  0.05649207  0.01813556    -0.00890
Br1692     Br  0.25517789  0.07843388  0.04399776    -0.00960
Br1693     Br  0.38007586  0.03724556  0.16648708    -0.00920
Br1694     Br  0.29672424  0.05934450  0.19215147    -0.00900
C1695       C  0.58089071  0.20426692  0.93455484    -0.02030
C1696       C  0.61704776  0.21423694  0.93334510     0.07650
C1697       C  0.64383796  0.18779752  0.93831971    -0.02140
C1698       C  0.63460867  0.15324676  0.95073119    -0.02140
C1699       C  0.59851589  0.14548981  0.95829691     0.07780
C1700       C  0.57147687  0.17032811  0.94800636    -0.02340
Br1701     Br  0.52144094  0.15911284  0.95398046    -0.00890
Br1702     Br  0.54458178  0.23886863  0.92113177    -0.00960
Br1703     Br  0.67150030  0.11821649  0.96093080    -0.00920
Br1704     Br  0.69323592  0.20057718  0.93115294    -0.00900
C1705       C  0.43196435  0.83134106  0.03785383    -0.02030
C1706       C  0.40419058  0.85726655  0.03532335     0.07650
C1707       C  0.36965938  0.84883891  0.04773199    -0.02140
C1708       C  0.36202909  0.81342320  0.05877766    -0.02140
C1709       C  0.38897604  0.78677499  0.05752459     0.07780
C1710       C  0.42425194  0.79623779  0.04891700    -0.02340
Br1711     Br  0.46083383  0.75941875  0.04726741    -0.00890
Br1712     Br  0.48055636  0.84278987  0.02445159    -0.00960
Br1713     Br  0.31411124  0.80016479  0.07231538    -0.00920
Br1714     Br  0.33219158  0.88456567  0.04581020    -0.00900
C1715       C  0.37627357  0.81032329  0.44447236    -0.02030
C1716       C  0.34885225  0.80725181  0.47011684     0.07650
C1717       C  0.31466424  0.79569831  0.45933131    -0.02140
C1718       C  0.30880372  0.78385961  0.42402221    -0.02140
C1719       C  0.33765782  0.78225829  0.39950922     0.07780
C1720       C  0.37109686  0.79680376  0.40946076    -0.02340
Br1721     Br  0.41122488  0.79316074  0.37746820    -0.00890
Br1722     Br  0.42212982  0.82929222  0.45893120    -0.00960
Br1723     Br  0.26133780  0.76802924  0.41043082    -0.00920
Br1724     Br  0.27744649  0.79102919  0.49474795    -0.00900
C1725       C  0.42937886  0.88176004  0.80506115    -0.02030
C1726       C  0.44377497  0.90357421  0.77780664     0.07650
C1727       C  0.46477417  0.93358944  0.78715337    -0.02140
C1728       C  0.47364720  0.94008974  0.82311831    -0.02140
C1729       C  0.46383514  0.91508539  0.84993990     0.07780
C1730       C  0.43956935  0.88728764  0.84120737    -0.02340
Br1731     Br  0.42264017  0.85481700  0.87770905    -0.00890
Br1732     Br  0.39946318  0.84162050  0.79225980    -0.00960
Br1733     Br  0.49954890  0.98358662  0.83491231    -0.00920
Br1734     Br  0.48688275  0.96218485  0.75002913    -0.00900
C1735       C  0.31759925  0.05722588  0.61932946    -0.02030
C1736       C  0.30055097  0.03153450  0.64098095     0.07650
C1737       C  0.27805868  0.04299922  0.66894161    -0.02140
C1738       C  0.26970815  0.07957574  0.67313493    -0.02140
C1739       C  0.28523992  0.10578571  0.65015015     0.07780
C1740       C  0.31054015  0.09428838  0.62419599    -0.02340
Br1741     Br  0.33399907  0.12842265  0.59322639    -0.00890
Br1742     Br  0.34850641  0.04131181  0.58124764    -0.00960
Br1743     Br  0.23650183  0.09190847  0.71100181    -0.00920
Br1744     Br  0.25625531  0.00751156  0.70000045    -0.00900
C1745       C  0.20662238  0.95248481  0.56584650    -0.02030
C1746       C  0.21767679  0.94048036  0.59989106     0.07650
C1747       C  0.19206286  0.93520079  0.62701416    -0.02140
C1748       C  0.15644831  0.94705298  0.62178748    -0.02140
C1749       C  0.14669015  0.96389077  0.58919705     0.07780
C1750       C  0.17118813  0.96389489  0.56032705    -0.02340
Br1751     Br  0.15708882  0.98045780  0.51314033    -0.00890
Br1752     Br  0.24177662  0.95860077  0.52855307    -0.00960
Br1753     Br  0.12251886  0.94350004  0.66044226    -0.00920
Br1754     Br  0.20709798  0.91566067  0.67261224    -0.00900
C1755       C  0.40975547  0.13081930  0.30452587    -0.02030
C1756       C  0.39991482  0.16166449  0.28459857     0.07650
C1757       C  0.42532995  0.18938900  0.27973270    -0.02140
C1758       C  0.46131171  0.18371991  0.28913542    -0.02140
C1759       C  0.47195491  0.15130273  0.30552670     0.07780
C1760       C  0.44583006  0.12581804  0.31517558    -0.02340
Br1761     Br  0.46052167  0.08197743  0.33873191    -0.00890
Br1762     Br  0.37506601  0.09385090  0.31426785    -0.00960
Br1763     Br  0.49719902  0.21765815  0.27382362    -0.00920
Br1764     Br  0.41159720  0.23539515  0.25966711    -0.00900
C1765       C  0.52772690  0.06453792  0.17476038    -0.02030
C1766       C  0.53723550  0.08953886  0.14776345     0.07650
C1767       C  0.56085862  0.11789567  0.15648318    -0.02140
C1768       C  0.57037498  0.12407260  0.19270619    -0.02140
C1769       C  0.55605639  0.10226533  0.21998139     0.07780
C1770       C  0.53588131  0.07169337  0.21076111    -0.02340
Br1771     Br  0.51412396  0.04295312  0.24799762    -0.00890
Br1772     Br  0.50327312  0.02011847  0.16320663    -0.00960
Br1773     Br  0.59932361  0.16490177  0.20553376    -0.00920
Br1774     Br  0.57798336  0.15006959  0.11984304    -0.00900
C1775       C  0.80527575  0.04012051  0.35573549    -0.02030
C1776       C  0.78162082  0.05637269  0.38047717     0.07650
C1777       C  0.79461622  0.06671033  0.41445789    -0.02140
C1778       C  0.82868523  0.05500737  0.42586824    -0.02140
C1779       C  0.85017639  0.03398851  0.40282839     0.07780
C1780       C  0.83950244  0.02862342  0.36701098    -0.02340
Br1781     Br  0.87010795  0.00225077  0.33473618    -0.00890
Br1782     Br  0.78895768  0.03009991  0.30759366    -0.00960
Br1783     Br  0.84475100  0.06586912  0.47395053    -0.00920
Br1784     Br  0.76447777  0.09367610  0.44671610    -0.00900
C1785       C  0.21298096  0.03532102  0.92663071    -0.02030
C1786       C  0.22387634  0.05224276  0.89485093     0.07650
C1787       C  0.19805895  0.06362727  0.86951220    -0.02140
C1788       C  0.16142888  0.05605903  0.87498421    -0.02140
C1789       C  0.15070594  0.03640064  0.90560952     0.07780
C1790       C  0.17681688  0.02688728  0.93184536    -0.02340
Br1791     Br  0.16444073  0.00177270  0.97533531    -0.00890
Br1792     Br  0.24869501  0.02118481  0.96191362    -0.00960
Br1793     Br  0.12678914  0.06985131  0.83881117    -0.00920
Br1794     Br  0.21343898  0.08722555  0.82617740    -0.00900
C1795       C  0.06802467  0.87223636  0.19737146    -0.02030
C1796       C  0.06440990  0.90066682  0.22214830     0.07650
C1797       C  0.05572613  0.93521506  0.20984755    -0.02140
C1798       C  0.04541072  0.94043281  0.17392658    -0.02140
C1799       C  0.04485463  0.91106564  0.14962728     0.07780
C1800       C  0.05809963  0.87732668  0.16113799    -0.02340
Br1801     Br  0.05941038  0.83715891  0.12837195    -0.00890
Br1802     Br  0.08412214  0.82569648  0.21387863    -0.00960
Br1803     Br  0.03173415  0.98809200  0.15934508    -0.00920
Br1804     Br  0.05588429  0.97469276  0.24358798    -0.00900
C1805       C  0.86464782  0.15902685  0.03551472    -0.02030
C1806       C  0.90048061  0.14729842  0.03758333     0.07650
C1807       C  0.92685597  0.17049823  0.05194538    -0.02140
C1808       C  0.91801763  0.20610302  0.06115196    -0.02140
C1809       C  0.88303970  0.21902344  0.05522580     0.07780
C1810       C  0.85597042  0.19492632  0.04408062    -0.02340
Br1811     Br  0.80736868  0.21191639  0.03869815    -0.00890
Br1812     Br  0.82793398  0.12634549  0.01940612    -0.00960
Br1813     Br  0.95447604  0.23809153  0.07934144    -0.00920
Br1814     Br  0.97559931  0.15448193  0.05812907    -0.00900
C1815       C  0.82540172  0.97849762  0.06808543    -0.02030
C1816       C  0.85243413  0.96054849  0.08868769     0.07650
C1817       C  0.84188899  0.93065554  0.11009012    -0.02140
C1818       C  0.80517712  0.92317494  0.11545267    -0.02140
C1819       C  0.77877537  0.94390613  0.09798146     0.07780
C1820       C  0.78910869  0.96967187  0.07242202    -0.02340
Br1821     Br  0.75248447  0.99491720  0.04502138    -0.00890
Br1822     Br  0.83617946  0.01495386  0.03261703    -0.00960
Br1823     Br  0.79081461  0.88608670  0.14861029    -0.00920
Br1824     Br  0.87648243  0.89921595  0.13265148    -0.00900
C1825       C  0.92553561  0.11273125  0.79902385    -0.02030
C1826       C  0.94795886  0.09657176  0.77345667     0.07650
C1827       C  0.97495220  0.07262103  0.78501193    -0.02140
C1828       C  0.98314420  0.06908971  0.82170498    -0.02140
C1829       C  0.96325521  0.08875746  0.84790188     0.07780
C1830       C  0.93259545  0.10857218  0.83609210    -0.02340
Br1831     Br  0.89996977  0.13149223  0.86932299    -0.00890
Br1832     Br  0.88623259  0.14228098  0.78312179    -0.00960
Br1833     Br  0.02182545  0.03628211  0.83404246    -0.00920
Br1834     Br  0.00249360  0.04628888  0.74954325    -0.00900
C1835       C  0.06882915  0.82440569  0.96831131    -0.02030
C1836       C  0.09613953  0.85013123  0.96281700     0.07650
C1837       C  0.12862082  0.83908120  0.94674892    -0.02140
C1838       C  0.13464625  0.80230199  0.93912204    -0.02140
C1839       C  0.10799088  0.77671266  0.94666634     0.07780
C1840       C  0.07459795  0.78814849  0.95970055    -0.02340
Br1841     Br  0.03755894  0.75302351  0.96842303    -0.00890
Br1842     Br  0.02309121  0.83765237  0.98804505    -0.00960
Br1843     Br  0.18012206  0.78639088  0.92064986    -0.00920
Br1844     Br  0.16605526  0.87355217  0.93802592    -0.00900
C1845       C  0.52196725  0.43747324  0.67908970    -0.02030
C1846       C  0.53288018  0.41248306  0.65252608     0.07650
C1847       C  0.55926452  0.38649491  0.66162982    -0.02140
C1848       C  0.57019288  0.38232369  0.69784161    -0.02140
C1849       C  0.55485292  0.40390265  0.72487618     0.07780
C1850       C  0.53224111  0.43273391  0.71501319    -0.02340
Br1851     Br  0.51093164  0.46276067  0.75172786    -0.00890
Br1852     Br  0.49307876  0.47900426  0.66712281    -0.00960
Br1853     Br  0.60339311  0.34479926  0.71097752    -0.00920
Br1854     Br  0.57888717  0.35488954  0.62559721    -0.00900
C1855       C  0.67552883  0.53451470  0.44103882    -0.02030
C1856       C  0.64858234  0.53659347  0.41416721     0.07650
C1857       C  0.65600963  0.55463267  0.38172504    -0.02140
C1858       C  0.69115035  0.56657052  0.37475193    -0.02140
C1859       C  0.71898351  0.55914844  0.39942453     0.07780
C1860       C  0.71080443  0.54455530  0.43317327    -0.02340
Br1861     Br  0.74909363  0.53336653  0.46650992    -0.00890
Br1862     Br  0.66470527  0.51762225  0.48882278    -0.00960
Br1863     Br  0.70236337  0.58969842  0.32990722    -0.00920
Br1864     Br  0.61950598  0.55955099  0.34528167    -0.00900
C1865       C  0.43481433  0.67713347  0.53021933    -0.02030
C1866       C  0.40998257  0.64930205  0.53704836     0.07650
C1867       C  0.37931497  0.65682718  0.55792671    -0.02140
C1868       C  0.37136568  0.69270213  0.56759262    -0.02140
C1869       C  0.39379366  0.72081647  0.55627152     0.07780
C1870       C  0.42614475  0.71278085  0.53876466    -0.02340
Br1871     Br  0.45582358  0.75139348  0.52128121    -0.00890
Br1872     Br  0.48099231  0.66713748  0.50887259    -0.00960
Br1873     Br  0.32783574  0.70407234  0.59277551    -0.00920
Br1874     Br  0.34649777  0.61906985  0.57077826    -0.00900
C1875       C  0.63331485  0.33985217  0.46641596    -0.02030
C1876       C  0.59684496  0.34950282  0.46666897     0.07650
C1877       C  0.57102658  0.32561899  0.45250197    -0.02140
C1878       C  0.58117367  0.29085363  0.44173152    -0.02140
C1879       C  0.61710775  0.27976949  0.44522074     0.07780
C1880       C  0.64344217  0.30493914  0.45571004    -0.02340
Br1881     Br  0.69289433  0.29011070  0.45906890    -0.00890
Br1882     Br  0.66876015  0.37310485  0.48418656    -0.00960
Br1883     Br  0.54506228  0.25676006  0.42699646    -0.00920
Br1884     Br  0.52121016  0.33948228  0.44967161    -0.00900
C1885       C  0.33793577  0.44661806  0.62124349    -0.02030
C1886       C  0.34714522  0.46371884  0.58877220     0.07650
C1887       C  0.32108809  0.46725983  0.56122389    -0.02140
C1888       C  0.28524364  0.45871425  0.56803972    -0.02140
C1889       C  0.27530371  0.44571442  0.60194438     0.07780
C1890       C  0.30186237  0.43755170  0.62775497    -0.02340
Br1891     Br  0.28801282  0.41706786  0.67309860    -0.00890
Br1892     Br  0.37367482  0.43870958  0.65801419    -0.00960
Br1893     Br  0.24872399  0.46892413  0.53246585    -0.00920
Br1894     Br  0.33386711  0.48459597  0.51405114    -0.00900
C1895       C  0.45241654  0.62938124  0.34573981    -0.02030
C1896       C  0.45970843  0.59290692  0.35326593     0.07650
C1897       C  0.44912626  0.56619369  0.32836164    -0.02140
C1898       C  0.43618486  0.57633092  0.29436005    -0.02140
C1899       C  0.43480966  0.61269914  0.28491649     0.07780
C1900       C  0.43933273  0.63915508  0.31155397    -0.02340
Br1901     Br  0.42951692  0.68871534  0.29985170    -0.00890
Br1902     Br  0.46377566  0.66603407  0.38052524    -0.00960
Br1903     Br  0.42317975  0.54129252  0.25868196    -0.00920
Br1904     Br  0.45350433  0.51582435  0.33995938    -0.00900
C1905       C  0.58696048  0.70183129  0.05810495    -0.02030
C1906       C  0.62313058  0.71209983  0.05855735     0.07650
C1907       C  0.64996040  0.68626374  0.05141816    -0.02140
C1908       C  0.64039939  0.65152587  0.03963536    -0.02140
C1909       C  0.60399320  0.64321063  0.03402504     0.07780
C1910       C  0.57725022  0.66805466  0.04454797    -0.02340
Br1911     Br  0.52700521  0.65744518  0.03797274    -0.00890
Br1912     Br  0.55049283  0.73597047  0.07192534    -0.00960
Br1913     Br  0.67699772  0.61691650  0.02759688    -0.00920
Br1914     Br  0.69959938  0.69996215  0.05491373    -0.00900
C1915       C  0.70225229  0.46446004  0.14280807    -0.02030
C1916       C  0.72484807  0.44689088  0.11787494     0.07650
C1917       C  0.70979160  0.43158850  0.08667451    -0.02140
C1918       C  0.67375575  0.43872524  0.07787126    -0.02140
C1919       C  0.65277264  0.46073733  0.10041659     0.07780
C1920       C  0.66630245  0.47174001  0.13384866    -0.02340
Br1921     Br  0.63650276  0.49966946  0.16562573    -0.00890
Br1922     Br  0.72132588  0.48103094  0.18809933    -0.00960
Br1923     Br  0.65394305  0.42068231  0.03347389    -0.00920
Br1924     Br  0.73899801  0.40383373  0.05420234    -0.00900
C1925       C  0.38196063  0.30534766  0.93307820    -0.02030
C1926       C  0.40579038  0.27812112  0.94456927     0.07650
C1927       C  0.43730571  0.28735107  0.96317250    -0.02140
C1928       C  0.44308427  0.32300604  0.97370423    -0.02140
C1929       C  0.41648177  0.34949537  0.96710526     0.07780
C1930       C  0.38705428  0.34111939  0.94461484    -0.02340
Br1931     Br  0.35187728  0.37733049  0.93237451    -0.00890
Br1932     Br  0.34022605  0.29261406  0.90513200    -0.00960
Br1933     Br  0.48764454  0.33479413  0.99754736    -0.00920
Br1934     Br  0.46964333  0.24987677  0.97933588    -0.00900
C1935       C  0.32855742  0.53331195  0.94107989    -0.02030
C1936       C  0.35410822  0.53605054  0.91328282     0.07650
C1937       C  0.34483451  0.55455844  0.88142973    -0.02140
C1938       C  0.30897785  0.56552159  0.87558859    -0.02140
C1939       C  0.28259892  0.55775932  0.90135389     0.07780
C1940       C  0.29285794  0.54343749  0.93479506    -0.02340
Br1941     Br  0.25653703  0.53192910  0.96962597    -0.00890
Br1942     Br  0.34170262  0.51491112  0.98789851    -0.00960
Br1943     Br  0.29484132  0.58713893  0.83064635    -0.00920
Br1944     Br  0.37994873  0.56185457  0.84442106    -0.00900
C1945       C  0.46014079  0.67371210  0.69426783    -0.02030
C1946       C  0.46890377  0.63772220  0.68701149     0.07650
C1947       C  0.44148235  0.61184159  0.68588526    -0.02140
C1948       C  0.40652272  0.62076603  0.69716559    -0.02140
C1949       C  0.39923962  0.65574575  0.70987033     0.07780
C1950       C  0.42558785  0.68278130  0.70614078    -0.02340
Br1951     Br  0.41509273  0.73224740  0.71819475    -0.00890
Br1952     Br  0.49698385  0.70968519  0.69084058    -0.00960
Br1953     Br  0.36993846  0.58432928  0.69831332    -0.00920
Br1954     Br  0.45270105  0.56389461  0.67061273    -0.00900
C1955       C  0.55329907  0.63451575  0.80316583    -0.02030
C1956       C  0.55849761  0.60676701  0.77789244     0.07650
C1957       C  0.55950648  0.57084683  0.78934747    -0.02140
C1958       C  0.54913488  0.56222005  0.82446167    -0.02140
C1959       C  0.53974938  0.58988438  0.84878171     0.07780
C1960       C  0.54429545  0.62608357  0.83883978    -0.02340
Br1961     Br  0.53474971  0.66389060  0.87289548    -0.00890
Br1962     Br  0.55618677  0.68389376  0.78787226    -0.00960
Br1963     Br  0.54596480  0.51230739  0.83824491    -0.00920
Br1964     Br  0.57265508  0.53361698  0.75580791    -0.00900
C1965       C  0.67156633  0.04121579  0.56248250    -0.02030
C1966       C  0.64695278  0.03903632  0.59118449     0.07650
C1967       C  0.65718154  0.05133106  0.62552247    -0.02140
C1968       C  0.69314338  0.06111876  0.63203330    -0.02140
C1969       C  0.71850344  0.05876133  0.60422057     0.07780
C1970       C  0.70716765  0.05116648  0.56907956    -0.02340
Br1971     Br  0.74204766  0.04925909  0.53101358    -0.00890
Br1972     Br  0.65772391  0.02844459  0.51411233    -0.00960
Br1973     Br  0.70886249  0.07412304  0.67964169    -0.00920
Br1974     Br  0.62326754  0.05095118  0.66431014    -0.00900
C1975       C  0.44903966  0.06213533  0.67179852    -0.02030
C1976       C  0.45508396  0.09004052  0.64668898     0.07650
C1977       C  0.44310457  0.12518383  0.65456307    -0.02140
C1978       C  0.43074194  0.13323433  0.68936215    -0.02140
C1979       C  0.43049274  0.10631789  0.71595732     0.07780
C1980       C  0.43574959  0.07038346  0.70602740    -0.02340
Br1981     Br  0.42710309  0.03335978  0.74099080    -0.00890
Br1982     Br  0.46022769  0.01272212  0.66034253    -0.00960
Br1983     Br  0.41593706  0.18127165  0.70180245    -0.00920
Br1984     Br  0.44693348  0.16285755  0.61930390    -0.00900
C1985       C  0.55435642  0.93985923  0.32506640    -0.02030
C1986       C  0.54927607  0.91105089  0.34938787     0.07650
C1987       C  0.56309506  0.87674177  0.34084435    -0.02140
C1988       C  0.57635695  0.87020654  0.30606435    -0.02140
C1989       C  0.57485017  0.89759504  0.27997218     0.07780
C1990       C  0.56776845  0.93298903  0.29061016    -0.02340
Br1991     Br  0.57274625  0.97072745  0.25565960    -0.00890
Br1992     Br  0.54163431  0.98855498  0.33782468    -0.00960
Br1993     Br  0.59361674  0.82318335  0.29269014    -0.00920
Br1994     Br  0.56028235  0.83791228  0.37494582    -0.00900
C1995       C  0.63018965  0.84324839  0.55193125    -0.02030
C1996       C  0.59518742  0.85148563  0.53995978     0.07650
C1997       C  0.56735445  0.82640437  0.54560846    -0.02140
C1998       C  0.57534355  0.79210157  0.55931233    -0.02140
C1999       C  0.61107845  0.78197314  0.56538861     0.07780
C2000       C  0.63816171  0.80824240  0.56432522    -0.02340
Br2001     Br  0.68653558  0.79480169  0.57693833    -0.00890
Br2002     Br  0.66774331  0.87840784  0.54796347    -0.00960
Br2003     Br  0.53820814  0.75698582  0.56621863    -0.00920
Br2004     Br  0.51838028  0.83785457  0.53297146    -0.00900
C2005       C  0.34383507  0.95258712  0.36371845    -0.02030
C2006       C  0.35537755  0.95235411  0.39971010     0.07650
C2007       C  0.33359810  0.93613834  0.42608640    -0.02140
C2008       C  0.29876655  0.92465193  0.41730964    -0.02140
C2009       C  0.28504195  0.93085454  0.38266951     0.07780
C2010       C  0.30866244  0.94164961  0.35518105    -0.02340
Br2011     Br  0.29132330  0.94448467  0.30642438    -0.00890
Br2012     Br  0.37470842  0.97139478  0.32700080    -0.00960
Br2013     Br  0.26870644  0.90341439  0.45342891    -0.00920
Br2014     Br  0.35013936  0.93178400  0.47499524    -0.00900
C2015       C  0.13895884  0.65266419  0.46485045    -0.02030
C2016       C  0.10677177  0.63770639  0.45220889     0.07650
C2017       C  0.08293306  0.65917803  0.43167649    -0.02140
C2018       C  0.08910366  0.69637328  0.42773505    -0.02140
C2019       C  0.11974791  0.71206280  0.44345459     0.07780
C2020       C  0.14584228  0.68955834  0.45980701    -0.02340
Br2021     Br  0.19045989  0.70976005  0.47667987    -0.00890
Br2022     Br  0.17287754  0.62264718  0.49005665    -0.00960
Br2023     Br  0.05375568  0.72611360  0.40383205    -0.00920
Br2024     Br  0.04033165  0.63831652  0.41103350    -0.00900
C2025       C  0.03626744  0.57292576  0.70658355    -0.02030
C2026       C  0.05898275  0.60076866  0.71814748     0.07650
C2027       C  0.07726562  0.62144134  0.69247852    -0.02140
C2028       C  0.07072505  0.61629674  0.65540538    -0.02140
C2029       C  0.04474430  0.59103242  0.64384250     0.07780
C2030       C  0.02853358  0.56843721  0.66995774    -0.02340
Br2031     Br  0.99503951  0.53085031  0.65731913    -0.00890
Br2032     Br  0.01305150  0.54272088  0.74189503    -0.00960
Br2033     Br  0.09563031  0.64613370  0.62129974    -0.00920
Br2034     Br  0.10897808  0.65884246  0.70825606    -0.00900
C2035       C  0.83346886  0.56390380  0.57388326    -0.02030
C2036       C  0.85753964  0.54986245  0.59976349     0.07650
C2037       C  0.84636755  0.54589287  0.63551598    -0.02140
C2038       C  0.81021657  0.55208197  0.64443997    -0.02140
C2039       C  0.78518283  0.56181063  0.61751497     0.07780
C2040       C  0.79733105  0.56985501  0.58277295    -0.02340
Br2041     Br  0.76365416  0.58551607  0.54651134    -0.00890
Br2042     Br  0.84929999  0.57295468  0.52558150    -0.00960
Br2043     Br  0.79419284  0.54518354  0.69304638    -0.00920
Br2044     Br  0.88020668  0.53022616  0.67161254    -0.00900
C2045       C  0.95700467  0.35085516  0.30648396    -0.02030
C2046       C  0.94395048  0.37754910  0.28264830     0.07650
C2047       C  0.93168001  0.41062746  0.29647135    -0.02140
C2048       C  0.93582780  0.41825745  0.33325499    -0.02140
C2049       C  0.95218691  0.39285635  0.35637608     0.07780
C2050       C  0.96131447  0.35861086  0.34325937    -0.02340
Br2051     Br  0.98136566  0.32317259  0.37549337    -0.00890
Br2052     Br  0.97087866  0.30430232  0.28829424    -0.00960
Br2053     Br  0.92168776  0.46481534  0.35115789    -0.00920
Br2054     Br  0.91259572  0.44702512  0.26457617    -0.00900
C2055       C  0.85386498  0.31192443  0.56803481    -0.02030
C2056       C  0.87978006  0.28451117  0.56439212     0.07650
C2057       C  0.91511077  0.29351941  0.55574492    -0.02140
C2058       C  0.92363208  0.32890624  0.54600837    -0.02140
C2059       C  0.89708908  0.35625660  0.54671253     0.07780
C2060       C  0.86265535  0.34794712  0.55986249    -0.02340
Br2061     Br  0.82672894  0.38510661  0.56378620    -0.00890
Br2062     Br  0.80595754  0.29927501  0.58211673    -0.00960
Br2063     Br  0.97177260  0.33862573  0.53082795    -0.00920
Br2064     Br  0.95082955  0.25585033  0.55376450    -0.00900
C2065       C  0.16667921  0.43565318  0.42376622    -0.02030
C2066       C  0.14099997  0.44331667  0.39678767     0.07650
C2067       C  0.14963535  0.43701503  0.36057324    -0.02140
C2068       C  0.18514616  0.42808733  0.35119404    -0.02140
C2069       C  0.21169921  0.42476089  0.37804771     0.07780
C2070       C  0.20170757  0.42562326  0.41434878    -0.02340
Br2071     Br  0.23718865  0.41625742  0.45115054    -0.00890
Br2072     Br  0.15476557  0.43980719  0.47377714    -0.00960
Br2073     Br  0.19841557  0.42230457  0.30170901    -0.00920
Br2074     Br  0.11346977  0.44306903  0.32395964    -0.00900
C2075       C  0.31302724  0.53990552  0.33783709    -0.02030
C2076       C  0.29594903  0.52334846  0.36709152     0.07650
C2077       C  0.27587666  0.54480642  0.39118511    -0.02140
C2078       C  0.26780478  0.58080580  0.38258981    -0.02140
C2079       C  0.28123127  0.59598109  0.35092417     0.07780
C2080       C  0.30581534  0.57628780  0.32988705    -0.02340
Br2081     Br  0.32754953  0.59817633  0.28853808    -0.00890
Br2082     Br  0.34363852  0.51216846  0.30677177    -0.00960
Br2083     Br  0.23645794  0.60878137  0.41271126    -0.00920
Br2084     Br  0.25778730  0.52419245  0.43504603    -0.00900
C2085       C  0.39900690  0.29826974  0.55811263    -0.02030
C2086       C  0.37178666  0.30970981  0.53413007     0.07650
C2087       C  0.33780617  0.31890237  0.54756882    -0.02140
C2088       C  0.32963967  0.31181948  0.58365502    -0.02140
C2089       C  0.35550393  0.29571066  0.60645426     0.07780
C2090       C  0.39080402  0.29104055  0.59425894    -0.02340
Br2091     Br  0.42718317  0.27303753  0.62659674    -0.00890
Br2092     Br  0.44694918  0.29063710  0.54055325    -0.00960
Br2093     Br  0.28237444  0.32296036  0.60102453    -0.00920
Br2094     Br  0.30139364  0.33819354  0.51584245    -0.00900
C2095       C  0.35248812  0.19135924  0.45853544    -0.02030
C2096       C  0.37854355  0.21450037  0.44380734     0.07650
C2097       C  0.41151271  0.20012634  0.43239752    -0.02140
C2098       C  0.42023670  0.16414776  0.44032536    -0.02140
C2099       C  0.39601490  0.14243649  0.45958517     0.07780
C2100       C  0.36134014  0.15538118  0.46667014    -0.02340
Br2101     Br  0.32727446  0.12472692  0.49023384    -0.00890
Br2102     Br  0.30578420  0.21012992  0.47052353    -0.00960
Br2103     Br  0.46666463  0.14576427  0.42712286    -0.00920
Br2104     Br  0.44654521  0.23073774  0.40991873    -0.00900
C2105       C  0.54146115  0.32295715  0.31862028    -0.02030
C2106       C  0.53028373  0.35898409  0.31722187     0.07650
C2107       C  0.55551832  0.38597332  0.30944532    -0.02140
C2108       C  0.58952753  0.37651226  0.29618616    -0.02140
C2109       C  0.59826316  0.33995542  0.29137927     0.07780
C2110       C  0.57517655  0.31320990  0.30499379    -0.02340
Br2111     Br  0.58884032  0.26312301  0.30381657    -0.00890
Br2112     Br  0.50899001  0.28713883  0.33646714    -0.00960
Br2113     Br  0.62237278  0.41341191  0.28121106    -0.00920
Br2114     Br  0.54181962  0.43573516  0.31415362    -0.00900
C2115       C  0.44009304  0.36647412  0.19577980    -0.02030
C2116       C  0.44498820  0.39139307  0.22384286     0.07650
C2117       C  0.45712769  0.42623565  0.21600084    -0.02140
C2118       C  0.46688803  0.43541938  0.18093674    -0.02140
C2119       C  0.46642985  0.40904795  0.15360454     0.07780
C2120       C  0.45107025  0.37511056  0.16060713    -0.02340
Br2121     Br  0.44808189  0.33931494  0.12325097    -0.00890
Br2122     Br  0.42128589  0.31960598  0.20646240    -0.00960
Br2123     Br  0.48130313  0.48433594  0.17090985    -0.00920
Br2124     Br  0.46544550  0.45965114  0.25461287    -0.00900
C2125       C  0.88561671  0.69900285  0.59444297    -0.02030
C2126       C  0.84951787  0.70143856  0.60497045     0.07650
C2127       C  0.82217908  0.69131104  0.58060730    -0.02140
C2128       C  0.83061760  0.68314422  0.54483776    -0.02140
C2129       C  0.86625963  0.68520398  0.53324886     0.07780
C2130       C  0.89397318  0.69087800  0.55850952    -0.02340
Br2131     Br  0.94310019  0.69021429  0.54280223    -0.00890
Br2132     Br  0.92327487  0.70927602  0.62852176    -0.00960
Br2133     Br  0.79311484  0.67301955  0.51045849    -0.00920
Br2134     Br  0.77290595  0.68946767  0.59537575    -0.00900
C2135       C  0.69564137  0.59217611  0.88050505    -0.02030
C2136       C  0.71540418  0.60256210  0.84988936     0.07650
C2137       C  0.72547364  0.57585282  0.82456961    -0.02140
C2138       C  0.71706079  0.53962622  0.83045450    -0.02140
C2139       C  0.70039991  0.52909295  0.86244479     0.07780
C2140       C  0.68876541  0.55539133  0.88702060    -0.02340
Br2141     Br  0.66559293  0.54054741  0.93064871    -0.00890
Br2142     Br  0.68060602  0.62756753  0.91525538    -0.00960
Br2143     Br  0.73063875  0.50333363  0.79567698    -0.00920
Br2144     Br  0.75154358  0.58734275  0.78153314    -0.00900
C2145       C  0.57489164  0.81558711  0.72133575    -0.02030
C2146       C  0.60094529  0.83937830  0.70718020     0.07650
C2147       C  0.58968439  0.86716407  0.68360293    -0.02140
C2148       C  0.55279409  0.87302132  0.67718789    -0.02140
C2149       C  0.52709850  0.85089158  0.69357184     0.07780
C2150       C  0.53834681  0.82145793  0.71456567    -0.02340
Br2151     Br  0.50291137  0.79160772  0.73779266    -0.00890
Br2152     Br  0.58784061  0.77445561  0.75045582    -0.00960
Br2153     Br  0.53718973  0.91391105  0.64941234    -0.00920
Br2154     Br  0.62395274  0.89948313  0.66234744    -0.00900
C2155       C  0.80500888  0.90388547  0.61627353    -0.02030
C2156       C  0.78816867  0.89403468  0.64876028     0.07650
C2157       C  0.78261864  0.92074729  0.67539083    -0.02140
C2158       C  0.79247388  0.95655032  0.66910648    -0.02140
C2159       C  0.80599890  0.96680406  0.63558025     0.07780
C2160       C  0.81327006  0.94035264  0.60950387    -0.02340
Br2161     Br  0.83222664  0.95478155  0.56371848    -0.00890
Br2162     Br  0.81376382  0.86833795  0.57960206    -0.00960
Br2163     Br  0.78441783  0.99297801  0.70537144    -0.00920
Br2164     Br  0.76055435  0.90989514  0.72067755    -0.00900
C2165       C  0.67222222  0.81264620  0.91496267    -0.02030
C2166       C  0.64795931  0.79298480  0.89341381     0.07650
C2167       C  0.61466627  0.78277345  0.90741976    -0.02140
C2168       C  0.60722938  0.78882135  0.94391089    -0.02140
C2169       C  0.63364550  0.80394352  0.96664155     0.07780
C2170       C  0.66527570  0.81773250  0.95168497    -0.02340
Br2171     Br  0.70070676  0.84021524  0.98208704    -0.00890
Br2172     Br  0.71614707  0.83066252  0.89492280    -0.00960
Br2173     Br  0.56169962  0.77449280  0.96351330    -0.00920
Br2174     Br  0.58006139  0.75941021  0.87681702    -0.00900
C2175       C  0.91198221  0.62712893  0.81168433    -0.02030
C2176       C  0.90075605  0.65814340  0.79267272     0.07650
C2177       C  0.92651151  0.68434715  0.78315588    -0.02140
C2178       C  0.96296166  0.67844851  0.79031250    -0.02140
C2179       C  0.97434273  0.64601790  0.80601950     0.07780
C2180       C  0.94884455  0.62090977  0.81791199    -0.02340
Br2181     Br  0.96481258  0.57655617  0.83965016    -0.00890
Br2182     Br  0.87758859  0.59144896  0.82622469    -0.00960
Br2183     Br  0.99826252  0.71340673  0.77557121    -0.00920
Br2184     Br  0.91308751  0.72854245  0.75955850    -0.00900
C2185       C  0.79572114  0.07744056  0.82469123    -0.02030
C2186       C  0.78423799  0.10217547  0.85114532     0.07650
C2187       C  0.78642217  0.09264903  0.88763397    -0.02140
C2188       C  0.79612963  0.05723972  0.89729312    -0.02140
C2189       C  0.80466774  0.03170416  0.87055905     0.07780
C2190       C  0.80665169  0.04257625  0.83452005    -0.02340
Br2191     Br  0.82052208  0.00827378  0.79817552    -0.00890
Br2192     Br  0.79418939  0.09004612  0.77447582    -0.00960
Br2193     Br  0.79455022  0.04250215  0.94680504    -0.00920
Br2194     Br  0.77260606  0.12686220  0.92392773    -0.00900
C2195       C  0.58928801  0.13272903  0.80566572    -0.02030
C2196       C  0.59843020  0.16087543  0.78188233     0.07650
C2197       C  0.57115022  0.18458598  0.76961523    -0.02140
C2198       C  0.53508580  0.17645743  0.77555204    -0.02140
C2199       C  0.52567519  0.14634468  0.79632013     0.07780
C2200       C  0.55282206  0.12565446  0.81297757    -0.02340
Br2201     Br  0.53990770  0.08566499  0.84296285    -0.00890
Br2202     Br  0.62592455  0.10247521  0.82668375    -0.00960
Br2203     Br  0.49834579  0.20452739  0.75166027    -0.00920
Br2204     Br  0.58243536  0.22908729  0.74506080    -0.00900
C2205       C  0.61035040  0.19367999  0.55650124    -0.02030
C2206       C  0.63707234  0.18363489  0.53175393     0.07650
C2207       C  0.67254610  0.17890298  0.54371470    -0.02140
C2208       C  0.68258873  0.19133119  0.57789752    -0.02140
C2209       C  0.65659415  0.20664845  0.60073930     0.07780
C2210       C  0.62011345  0.20524831  0.59114271    -0.02340
Br2211     Br  0.58414711  0.22265025  0.62387169    -0.00890
Br2212     Br  0.56095949  0.19530894  0.54108712    -0.00960
Br2213     Br  0.73230051  0.18929293  0.59232700    -0.00920
Br2214     Br  0.70778448  0.15865164  0.51185311    -0.00900
C2215       C  0.70402545  0.44253462  0.60712699    -0.02030
C2216       C  0.69578270  0.46760767  0.63438661     0.07650
C2217       C  0.69188571  0.45572387  0.66996794    -0.02140
C2218       C  0.70084524  0.42010782  0.67898002    -0.02140
C2219       C  0.71286633  0.39598426  0.65223729     0.07780
C2220       C  0.71213275  0.40655257  0.61601707    -0.02340
Br2221     Br  0.72553817  0.37275309  0.57920571    -0.00890
Br2222     Br  0.70755640  0.45851177  0.55811174    -0.00960
Br2223     Br  0.69884730  0.40535105  0.72858086    -0.00920
Br2224     Br  0.67852712  0.48942882  0.70709592    -0.00900
C2225       C  0.88156422  0.29501264  0.90794191    -0.02030
C2226       C  0.84511321  0.29102638  0.89886684     0.07650
C2227       C  0.81851878  0.30397806  0.92255226    -0.02140
C2228       C  0.82824923  0.31657481  0.95676659    -0.02140
C2229       C  0.86420707  0.31471807  0.96793907     0.07780
C2230       C  0.89107370  0.30679949  0.94263718    -0.02340
Br2231     Br  0.94063446  0.30840371  0.95733849    -0.00890
Br2232     Br  0.91819347  0.28064324  0.87456239    -0.00960
Br2233     Br  0.79212167  0.33251930  0.99006877    -0.00920
Br2234     Br  0.76845438  0.30269271  0.90928512    -0.00900
C2235       C  0.92083219  0.32039112  0.69530928    -0.02030
C2236       C  0.89861635  0.34584141  0.71264887     0.07650
C2237       C  0.91014174  0.38161480  0.71615075    -0.02140
C2238       C  0.94542784  0.39073336  0.70660909    -0.02140
C2239       C  0.96920194  0.36399157  0.69378024     0.07780
C2240       C  0.95595713  0.32961265  0.68548094    -0.02340
Br2241     Br  0.98686106  0.29427510  0.66349095    -0.00890
Br2242     Br  0.90405850  0.27215836  0.68672181    -0.00960
Br2243     Br  0.96230951  0.43924588  0.71348492    -0.00920
Br2244     Br  0.87868661  0.41714348  0.73686264    -0.00900
C2245       C  0.80819040  0.57925700  0.17952602    -0.02030
C2246       C  0.80215283  0.60524028  0.15245188     0.07650
C2247       C  0.80976084  0.59653928  0.11645033    -0.02140
C2248       C  0.81848186  0.56077864  0.10719503    -0.02140
C2249       C  0.82050592  0.53409811  0.13399198     0.07780
C2250       C  0.81810834  0.54400636  0.17028332    -0.02340
Br2251     Br  0.82545060  0.50811730  0.20711077    -0.00890
Br2252     Br  0.80220662  0.59114567  0.22941401    -0.00960
Br2253     Br  0.82580988  0.54744573  0.05783938    -0.00920
Br2254     Br  0.80573433  0.63284447  0.07970931    -0.00900
C2255       C  0.89400415  0.80593259  0.06106378    -0.02030
C2256       C  0.86677466  0.80710135  0.03474072     0.07650
C2257       C  0.83066240  0.80461608  0.04481018    -0.02140
C2258       C  0.82183850  0.79831865  0.08076209    -0.02140
C2259       C  0.84916298  0.79431841  0.10685569     0.07780
C2260       C  0.88522932  0.79942197  0.09719581    -0.02340
Br2261     Br  0.92268441  0.79437185  0.13266788    -0.00890
Br2262     Br  0.94330206  0.81107423  0.04695984    -0.00960
Br2263     Br  0.77211347  0.79399981  0.09347689    -0.00920
Br2264     Br  0.79345294  0.80643427  0.00852386    -0.00900
C2265       C  0.58450584  0.65092334  0.24486403    -0.02030
C2266       C  0.60841448  0.64623684  0.21612875     0.07650
C2267       C  0.59327057  0.64040894  0.18137826    -0.02140
C2268       C  0.55537092  0.63704783  0.17718021    -0.02140
C2269       C  0.53224832  0.64608749  0.20601183     0.07780
C2270       C  0.54845686  0.65791911  0.23827092    -0.02340
Br2271     Br  0.52247842  0.68510239  0.27401265    -0.00890
Br2272     Br  0.59846052  0.64181735  0.29391446    -0.00960
Br2273     Br  0.53639845  0.61937381  0.13245372    -0.00920
Br2274     Br  0.62308326  0.63671976  0.13936650    -0.00900
C2275       C  0.62619495  0.69184906  0.41073880    -0.02030
C2276       C  0.65846316  0.70825498  0.39987681     0.07650
C2277       C  0.68469222  0.71671187  0.42616274    -0.02140
C2278       C  0.67801988  0.71060815  0.46259677    -0.02140
C2279       C  0.64527158  0.69581490  0.47339313     0.07780
C2280       C  0.61985349  0.68524087  0.44745603    -0.02340
Br2281     Br  0.57530317  0.66427127  0.46270128    -0.00890
Br2282     Br  0.58863074  0.68276424  0.37647497    -0.00960
Br2283     Br  0.71259811  0.72545368  0.49853034    -0.00920
Br2284     Br  0.72990099  0.73775183  0.41348056    -0.00900
C2285       C  0.92007180  0.84943076  0.26002175    -0.02030
C2286       C  0.89535261  0.85426653  0.28833422     0.07650
C2287       C  0.90957414  0.86112796  0.32330757    -0.02140
C2288       C  0.94714763  0.86561972  0.32836081    -0.02140
C2289       C  0.97110053  0.85856539  0.29987330     0.07780
C2290       C  0.95659952  0.84578731  0.26725247    -0.02340
Br2291     Br  0.98655497  0.82262257  0.23168710    -0.00890
Br2292     Br  0.90650826  0.85299294  0.21007417    -0.00960
Br2293     Br  0.96507530  0.88102661  0.37427751    -0.00920
Br2294     Br  0.87893560  0.86474030  0.36480130    -0.00900
C2295       C  0.70066602  0.94208344  0.39863117    -0.02030
C2296       C  0.68775784  0.96593901  0.37193211     0.07650
C2297       C  0.67798813  0.95243037  0.33799729    -0.02140
C2298       C  0.68529904  0.91635624  0.32940760    -0.02140
C2299       C  0.70263122  0.89382882  0.35463673     0.07780
C2300       C  0.70851539  0.90609146  0.38984045    -0.02340
Br2301     Br  0.72914912  0.87412609  0.42515537    -0.00890
Br2302     Br  0.71034478  0.95981549  0.44636533    -0.00960
Br2303     Br  0.67388005  0.89874941  0.28208441    -0.00920
Br2304     Br  0.65875094  0.98433232  0.30180420    -0.00900
loop_ 
_geom_bond_atom_site_label_1 
_geom_bond_atom_site_label_2 
_geom_bond_distance 
_geom_bond_site_symmetry_2 
_ccdc_geom_bond_type 
O1           Mg3   2.098       .  S
O1           Mg9   2.133       .  S
O1           C36   1.238       .  S
C2           O15   1.240       .  S
C2           O39   1.275       .  A
C2           H41   1.081       .  S
Mg3          O32   2.128       .  S
Mg3          O47   2.283       .  S
Mg3          O43   2.293       .  S
Mg3          O14   2.294       .  S
O4          Mg46   2.121       .  S
O4          Mg29   2.122       .  S
O4           C25   1.240       .  S
O5           C36   1.272       .  A
O5          Mg29   2.291       .  S
C6            O8   1.270       .  A
C6           O20   1.279       .  A
C6         C2299   1.472       .  S
O7           C35   1.275       .  A
O7           Mg9   2.310       .  S
O8          Mg40   2.250       .  S
Mg9          O15   2.124       .  S
Mg9          O23   2.304       .  S
Mg9          O11   2.336       .  S
C10          O48   1.274       .  A
C10          O16   1.272       .  A
C10        C2286   1.507       .  S
O11          C18   1.280       .  A
H12          C25   1.081       .  S
C13          O27   1.238       .  S
C13          O28   1.271       .  A
C13          H38   1.081       .  S
O14          C37   1.274       .  A
O15         Mg29   2.132       .  S
O16         Mg46   2.279       .  S
C17          O30   1.269       .  A
C17          O22   1.275       .  A
C17        C2259   1.473       .  S
C18          O45   1.272       .  A
C18        C2246   1.479       .  S
Mg19         O26   2.120       .  S
Mg19         O27   2.135       .  S
Mg19         O20   2.330       .  S
Mg19         O21   2.310       .  S
Mg19         O48   2.302       .  S
O21          C25   1.274       .  A
O22         Mg29   2.308       .  S
O23          C42   1.274       .  A
O24          C44   1.273       .  A
O24         Mg40   2.289       .  S
O26         Mg40   2.144       .  S
O26          C37   1.241       .  S
O27         Mg46   2.099       .  S
O28         Mg40   2.290       .  S
Mg29         O45   2.262       .  S
O30         Mg46   2.266       .  S
H31          C36   1.081       .  S
O32         Mg40   2.117       .  S
O32          C35   1.241       .  S
H33          C35   1.081       .  S
H34          C37   1.081       .  S
O39         Mg46   2.301       .  S
C42          O47   1.275       .  A
C42        C2266   1.506       .  S
O43          C44   1.273       .  A
C44        C2276   1.486       .  S
O49         Mg51   2.117       .  S
O49         Mg57   2.113       .  S
O49          C84   1.239       .  S
C50          O63   1.240       .  S
C50          O87   1.273       .  A
C50          H89   1.081       .  S
Mg51         O80   2.129       .  S
Mg51         O95   2.334       .  S
Mg51         O91   2.254       .  S
Mg51         O62   2.312       .  S
O52         Mg94   2.117       .  S
O52         Mg77   2.117       .  S
O52          C73   1.238       .  S
O53          C84   1.272       .  A
O53         Mg77   2.297       .  S
C54          O56   1.265       .  A
C54          O68   1.275       .  A
C54        C2196   1.488       .  S
O55          C83   1.274       .  A
O55         Mg57   2.306       .  S
O56         Mg88   2.236       .  S
Mg57         O63   2.106       .  S
Mg57         O71   2.239       .  S
Mg57         O59   2.330       .  S
C58          O96   1.271       .  A
C58          O64   1.277       .  A
C58        C2186   1.478       .  S
O59          C66   1.277       .  A
H60          C73   1.085       .  S
C61          O75   1.240       .  S
C61          O76   1.275       .  A
C61          H86   1.082       .  S
O62          C85   1.274       .  A
O63         Mg77   2.115       .  S
O64         Mg94   2.340       .  S
C65          O78   1.273       .  A
C65          O70   1.275       .  A
C65        C2226   1.476       .  S
C66          O93   1.273       .  A
C66        C2236   1.477       .  S
Mg67         O74   2.127       .  S
Mg67         O75   2.106       .  S
Mg67         O68   2.352       .  S
Mg67         O69   2.298       .  S
Mg67         O96   2.244       .  S
O69          C73   1.272       .  A
O70         Mg77   2.319       .  S
O71          C90   1.270       .  A
O72          C92   1.271       .  A
O72         Mg88   2.298       .  S
O74         Mg88   2.089       .  S
O74          C85   1.240       .  S
O75         Mg94   2.122       .  S
O76         Mg88   2.323       .  S
Mg77         O93   2.256       .  S
O78         Mg94   2.255       .  S
H79          C84   1.081       .  S
O80         Mg88   2.123       .  S
O80          C83   1.240       .  S
H81          C83   1.079       .  S
H82          C85   1.081       .  S
O87         Mg94   2.301       .  S
C90          O95   1.277       .  A
C90        C2219   1.475       .  S
O91          C92   1.271       .  A
C92        C2209   1.470       .  S
O97         Mg99   2.115       .  S
O97        Mg105   2.134       .  S
O97         C132   1.242       .  S
C98         O111   1.240       .  S
C98         O135   1.273       .  A
C98         H137   1.081       .  S
Mg99        O128   2.129       .  S
Mg99        O143   2.330       .  S
Mg99        O139   2.281       .  S
Mg99        O110   2.290       .  S
O100       Mg142   2.118       .  S
O100       Mg125   2.102       .  S
O100        C121   1.239       .  S
O101        C132   1.274       .  A
O101       Mg125   2.298       .  S
C102        O104   1.272       .  A
C102        O116   1.274       .  A
C102       C2176   1.484       .  S
O103        C131   1.271       .  A
O103       Mg105   2.292       .  S
O104       Mg136   2.274       .  S
Mg105       O111   2.111       .  S
Mg105       O119   2.255       .  S
Mg105       O107   2.285       .  S
C106        O144   1.271       .  A
C106        O112   1.280       .  A
C106       C2126   1.477       .  S
O107        C114   1.272       .  A
H108        C121   1.081       .  S
C109        O123   1.242       .  S
C109        O124   1.274       .  A
C109        H134   1.081       .  S
O110        C133   1.272       .  A
O111       Mg125   2.138       .  S
O112       Mg142   2.337       .  S
C113        O126   1.275       .  A
C113        O118   1.278       .  A
C113       C2156   1.491       .  S
C114        O141   1.271       .  A
C114       C2146   1.489       .  S
Mg115       O122   2.108       .  S
Mg115       O123   2.125       .  S
Mg115       O116   2.293       .  S
Mg115       O117   2.295       .  S
Mg115       O144   2.258       .  S
O117        C121   1.273       .  A
O118       Mg125   2.322       .  S
O119        C138   1.271       .  A
O120        C140   1.277       .  A
O120       Mg136   2.306       .  S
O122       Mg136   2.134       .  S
O122        C133   1.239       .  S
O123       Mg142   2.113       .  S
O124       Mg136   2.296       .  S
Mg125       O141   2.265       .  S
O126       Mg142   2.279       .  S
H127        C132   1.081       .  S
O128       Mg136   2.106       .  S
O128        C131   1.239       .  S
H129        C131   1.081       .  S
H130        C133   1.081       .  S
O135       Mg142   2.297       .  S
C138        O143   1.280       .  A
C138       C2166   1.473       .  S
O139        C140   1.276       .  A
C140       C2136   1.490       .  S
C145       C2106   1.476       .  S
C145        C146   1.402       .  A
C145        C150   1.392       .  A
C146        H151   1.083       .  S
C146        C147   1.415       .  A
C147        C163   1.491       .  S
C147        C148   1.417       .  A
C148        H152   1.083       .  S
C148        C149   1.405       .  A
C149       C2116   1.477       .  S
C149        C150   1.391       .  A
C150        H153   1.086       .  S
C154       C2086   1.480       .  S
C154        C155   1.404       .  A
C154        C159   1.394       .  A
C155        H160   1.084       .  S
C155        C156   1.411       .  A
C156        C165   1.481       .  S
C156        C157   1.411       .  A
C157        H161   1.083       .  S
C157        C158   1.405       .  A
C158       C2096   1.481       .  S
C158        C159   1.395       .  A
C159        H162   1.085       .  S
C163        C164   1.408       .  A
C163        C168   1.409       .  A
C164        H169   1.084       .  S
C164        C165   1.404       .  A
C165        C166   1.404       .  A
C166        H170   1.084       .  S
C166        C167   1.405       .  A
C167        C176   1.484       .  S
C167        C168   1.407       .  A
C168        H171   1.083       .  S
C172       C2076   1.488       .  S
C172        C173   1.396       .  A
C172        C177   1.407       .  A
C173        H178   1.085       .  S
C173        C174   1.394       .  A
C174       C2069   1.477       .  S
C174        C175   1.403       .  A
C175        H179   1.084       .  S
C175        C176   1.411       .  A
C176        C177   1.412       .  A
C177        H180   1.083       .  S
O181       Mg183   2.116       .  S
O181       Mg189   2.128       .  S
O181        C216   1.241       .  S
C182        O195   1.241   1_455  S
C182        O219   1.272       .  A
C182        H221   1.081       .  S
Mg183       O212   2.126       .  S
Mg183       O227   2.331       .  S
Mg183       O223   2.271       .  S
Mg183       O194   2.309       .  S
O184       Mg226   2.138       .  S
O184       Mg209   2.116   1_455  S
O184        C205   1.240       .  S
O185        C216   1.274       .  A
O185       Mg209   2.298       .  S
C186        O188   1.271       .  A
C186        O200   1.280       .  A
C186       C2066   1.478       .  S
O187        C215   1.273   1_655  A
O187       Mg189   2.298       .  S
O188       Mg220   2.259       .  S
Mg189       O195   2.109       .  S
Mg189       O203   2.278       .  S
Mg189       O191   2.327       .  S
C190        O228   1.275       .  A
C190        O196   1.280       .  A
C190       C2016   1.482       .  S
O191        C198   1.278       .  A
H192        C205   1.081   1_655  S
C193        O207   1.238       .  S
C193        O208   1.273       .  A
C193        H218   1.081       .  S
O194        C217   1.276       .  A
O195       Mg209   2.133       .  S
O196       Mg226   2.332       .  S
C197        O210   1.275       .  A
C197        O202   1.273       .  A
C197       C2029   1.496       .  S
C198        O225   1.271       .  A
C198       C2036   1.476       .  S
Mg199       O206   2.130       .  S
Mg199       O207   2.123       .  S
Mg199       O200   2.342       .  S
Mg199       O201   2.300       .  S
Mg199       O228   2.282       .  S
O201        C205   1.273       .  A
O202       Mg209   2.285   1_455  S
O203        C222   1.274       .  A
O204        C224   1.275       .  A
O204       Mg220   2.312   1_655  S
O206       Mg220   2.127       .  S
O206        C217   1.242   1_455  S
O207       Mg226   2.112       .  S
O208       Mg220   2.297       .  S
Mg209       O225   2.268       .  S
O210       Mg226   2.285       .  S
H211        C216   1.081       .  S
O212       Mg220   2.112   1_655  S
O212        C215   1.238   1_655  S
H213        C215   1.081       .  S
H214        C217   1.081       .  S
O219       Mg226   2.291       .  S
C222        O227   1.279       .  A
C222       C2059   1.488       .  S
O223        C224   1.271       .  A
C224       C2049   1.476       .  S
O229       Mg231   2.115       .  S
O229       Mg237   2.105       .  S
O229        C264   1.240       .  S
C230        O243   1.240       .  S
C230        O267   1.274       .  A
C230        H269   1.080       .  S
Mg231       O260   2.114       .  S
Mg231       O275   2.332       .  S
Mg231       O271   2.254       .  S
Mg231       O242   2.296       .  S
O232       Mg274   2.110       .  S
O232       Mg257   2.118       .  S
O232        C253   1.241       .  S
O233        C264   1.274       .  A
O233       Mg257   2.319   1_545  S
C234        O236   1.272   1_565  A
C234        O248   1.278       .  A
C234       C2006   1.480       .  S
O235        C263   1.273       .  A
O235       Mg237   2.304       .  S
O236       Mg268   2.253       .  S
Mg237       O243   2.126   1_545  S
Mg237       O251   2.251       .  S
Mg237       O239   2.346       .  S
C238        O276   1.272       .  A
C238        O244   1.276       .  A
C238       C1986   1.481       .  S
O239        C246   1.276       .  A
H240        C253   1.081       .  S
C241        O255   1.240       .  S
C241        O256   1.273       .  A
C241        H266   1.081       .  S
O242        C265   1.274       .  A
O243       Mg257   2.101       .  S
O244       Mg274   2.327       .  S
C245        O258   1.270       .  A
C245        O250   1.273       .  A
C245       C1996   1.479       .  S
C246        O273   1.267   1_545  A
C246       C1966   1.479       .  S
Mg247       O254   2.117   1_565  S
Mg247       O255   2.107       .  S
Mg247       O248   2.340       .  S
Mg247       O249   2.316       .  S
Mg247       O276   2.253       .  S
O249        C253   1.275       .  A
O250       Mg257   2.322       .  S
O251        C270   1.272       .  A
O252        C272   1.277       .  A
O252       Mg268   2.335       .  S
O254       Mg268   2.119       .  S
O254        C265   1.240       .  S
O255       Mg274   2.109       .  S
O256       Mg268   2.298   1_565  S
Mg257       O273   2.234       .  S
O258       Mg274   2.251       .  S
H259        C264   1.081       .  S
O260       Mg268   2.118       .  S
O260        C263   1.240       .  S
H261        C263   1.080       .  S
H262        C265   1.080       .  S
O267       Mg274   2.311       .  S
C270        O275   1.277       .  A
C270       C1976   1.480       .  S
O271        C272   1.272       .  A
C272       C2099   1.477       .  S
C277        C299   1.484       .  S
C277        C278   1.405       .  A
C277        C282   1.406       .  A
C278        H283   1.084       .  S
C278        C279   1.404       .  A
C279        C288   1.487       .  S
C279        C280   1.409       .  A
C280        H284   1.083       .  S
C280        C281   1.408       .  A
C281        C308   1.489       .  S
C281        C282   1.406       .  A
C282        H285   1.084       .  S
C286       C1956   1.475       .  S
C286        C287   1.400       .  A
C286        C291   1.394       .  A
C287        H292   1.083       .  S
C287        C288   1.411       .  A
C288        C289   1.417       .  A
C289        H293   1.083       .  S
C289        C290   1.406       .  A
C290       C1946   1.480       .  S
C290        C291   1.394       .  A
C291        H294   1.086       .  S
C295       C1999   1.474       .  S
C295        C296   1.392       .  A
C295        C300   1.403       .  A
C296        H301   1.086       .  S
C296        C297   1.391       .  A
C297       C2279   1.473       .  S
C297        C298   1.400       .  A
C298        H302   1.083       .  S
C298        C299   1.412       .  A
C299        C300   1.415       .  A
C300        H303   1.083       .  S
C304       C2039   1.481       .  S
C304        C305   1.394       .  A
C304        C309   1.406       .  A
C305        H310   1.085       .  S
C305        C306   1.394       .  A
C306       C2216   1.478       .  S
C306        C307   1.404       .  A
C307        H311   1.083       .  S
C307        C308   1.413       .  A
C308        C309   1.414       .  A
C309        H312   1.083       .  S
O313       Mg315   2.129   1_554  S
O313       Mg321   2.103       .  S
O313        C348   1.239       .  S
C314        O327   1.240       .  S
C314        O351   1.274       .  A
C314        H353   1.081       .  S
Mg315       O344   2.094       .  S
Mg315       O359   2.319       .  S
Mg315       O355   2.241       .  S
Mg315       O326   2.320       .  S
O316       Mg358   2.122       .  S
O316       Mg341   2.119       .  S
O316        C337   1.239       .  S
O317        C348   1.274       .  A
O317       Mg341   2.316       .  S
C318        O320   1.270       .  A
C318        O332   1.276       .  A
C318       C1959   1.474       .  S
O319        C347   1.275       .  A
O319       Mg321   2.320   1_556  S
O320       Mg352   2.240       .  S
Mg321       O327   2.120       .  S
Mg321       O335   2.243       .  S
Mg321       O323   2.324       .  S
C322        O360   1.271   1_554  A
C322        O328   1.275       .  A
C322       C1909   1.475       .  S
O323        C330   1.274       .  A
H324        C337   1.080       .  S
C325        O339   1.239       .  S
C325        O340   1.273       .  A
C325        H350   1.081       .  S
O326        C349   1.276       .  A
O327       Mg341   2.115       .  S
O328       Mg358   2.322       .  S
C329        O342   1.270       .  A
C329        O334   1.274       .  A
C329       C1919   1.469       .  S
C330        O357   1.271       .  A
C330       C2119   1.481       .  S
Mg331       O338   2.115       .  S
Mg331       O339   2.116       .  S
Mg331       O332   2.330       .  S
Mg331       O333   2.305   1_556  S
Mg331       O360   2.249       .  S
O333        C337   1.273       .  A
O334       Mg341   2.317       .  S
O335        C354   1.267   1_554  A
O336        C356   1.274       .  A
O336       Mg352   2.336       .  S
O338       Mg352   2.111       .  S
O338        C349   1.241       .  S
O339       Mg358   2.120   1_556  S
O340       Mg352   2.304       .  S
Mg341       O357   2.247       .  S
O342       Mg358   2.242       .  S
H343        C348   1.081       .  S
O344       Mg352   2.120       .  S
O344        C347   1.241       .  S
H345        C347   1.080       .  S
H346        C349   1.081       .  S
O351       Mg358   2.303       .  S
C354        O359   1.271       .  A
C354       C1929   1.481       .  S
O355        C356   1.267       .  A
C356       C1936   1.483       .  S
O361       Mg363   2.130       .  S
O361       Mg369   2.090       .  S
O361        C396   1.240       .  S
C362        O375   1.240       .  S
C362        O399   1.276       .  A
C362        H401   1.081       .  S
Mg363       O392   2.114       .  S
Mg363       O407   2.346       .  S
Mg363       O403   2.249       .  S
Mg363       O374   2.306       .  S
O364       Mg406   2.101       .  S
O364       Mg389   2.127       .  S
O364        C385   1.241       .  S
O365        C396   1.275       .  A
O365       Mg389   2.323       .  S
C366        O368   1.269       .  A
C366        O380   1.276       .  A
C366       C1856   1.484       .  S
O367        C395   1.276       .  A
O367       Mg369   2.325       .  S
O368       Mg400   2.241       .  S
Mg369       O375   2.129       .  S
Mg369       O383   2.249       .  S
Mg369       O371   2.336       .  S
C370        O408   1.272       .  A
C370        O376   1.273       .  A
C370       C1896   1.475       .  S
O371        C378   1.274       .  A
H372        C385   1.081       .  S
C373        O387   1.240       .  S
C373        O388   1.274       .  A
C373        H398   1.081       .  S
O374        C397   1.274       .  A
O375       Mg389   2.103       .  S
O376       Mg406   2.308       .  S
C377        O390   1.266       .  A
C377        O382   1.272       .  A
C377       C1866   1.483       .  S
C378        O405   1.267       .  A
C378       C1886   1.479       .  S
Mg379       O386   2.121       .  S
Mg379       O387   2.118       .  S
Mg379       O380   2.339       .  S
Mg379       O381   2.313       .  S
Mg379       O408   2.256       .  S
O381        C385   1.275       .  A
O382       Mg389   2.330       .  S
O383        C402   1.267       .  A
O384        C404   1.274       .  A
O384       Mg400   2.320       .  S
O386       Mg400   2.107       .  S
O386        C397   1.240       .  S
O387       Mg406   2.113       .  S
O388       Mg400   2.313       .  S
Mg389       O405   2.235       .  S
O390       Mg406   2.238       .  S
H391        C396   1.082       .  S
O392       Mg400   2.119       .  S
O392        C395   1.241       .  S
H393        C395   1.081       .  S
H394        C397   1.081       .  S
O399       Mg406   2.327       .  S
C402        O407   1.274       .  A
C402       C1846   1.493       .  S
O403        C404   1.271       .  A
C404       C1876   1.474       .  S
O409       Mg411   2.093   1_565  S
O409       Mg417   2.122       .  S
O409        C444   1.239   1_665  S
C410        O423   1.240   1_656  S
C410        O447   1.273   1_655  A
C410        H449   1.081       .  S
Mg411       O440   2.124       .  S
Mg411       O455   2.294       .  S
Mg411       O451   2.249       .  S
Mg411       O422   2.296       .  S
O412       Mg454   2.127       .  S
O412       Mg437   2.099   1_556  S
O412        C433   1.241   1_566  S
O413        C444   1.274   1_565  A
O413       Mg437   2.296       .  S
C414        O416   1.273       .  A
C414        O428   1.273   1_655  A
C414       C1829   1.504       .  S
O415        C443   1.275   1_554  A
O415       Mg417   2.309       .  S
O416       Mg448   2.265       .  S
Mg417       O423   2.105   1_655  S
Mg417       O431   2.263       .  S
Mg417       O419   2.337   1_655  S
C418        O456   1.274       .  A
C418        O424   1.276   1_545  A
C418       C1789   1.487       .  S
O419        C426   1.278       .  A
H420        C433   1.081       .  S
C421        O435   1.241   1_665  S
C421        O436   1.274   1_565  A
C421        H446   1.082       .  S
O422        C445   1.272   1_655  A
O423       Mg437   2.121       .  S
O424       Mg454   2.300       .  S
C425        O438   1.273       .  A
C425        O430   1.277   1_556  A
C425       C1836   1.487       .  S
C426        O453   1.272       .  A
C426       C1799   1.485       .  S
Mg427       O434   2.110   1_455  S
Mg427       O435   2.133       .  S
Mg427       O428   2.290       .  S
Mg427       O429   2.285       .  S
Mg427       O456   2.277       .  S
O429        C433   1.272   1_556  A
O430       Mg437   2.317       .  S
O431        C450   1.271       .  A
O432        C452   1.281   1_556  A
O432       Mg448   2.351       .  S
O434       Mg448   2.129       .  S
O434        C445   1.238   1_656  S
O435       Mg454   2.110   1_545  S
O436       Mg448   2.301       .  S
Mg437       O453   2.261       .  S
O438       Mg454   2.275       .  S
H439        C444   1.081       .  S
O440       Mg448   2.116   1_554  S
O440        C443   1.242   1_544  S
H441        C443   1.081       .  S
H442        C445   1.081       .  S
O447       Mg454   2.291       .  S
C450        O455   1.272   1_565  A
C450       C1816   1.507       .  S
O451        C452   1.270       .  A
C452       C1806   1.477       .  S
C457       C1776   1.480       .  S
C457        C458   1.393       .  A
C457        C462   1.404       .  A
C458        H463   1.086   1_545  S
C458        C459   1.392       .  A
C459       C2296   1.478   1_545  S
C459        C460   1.404       .  A
C460        H464   1.083       .  S
C460        C461   1.411       .  A
C461        C468   1.481       .  S
C461        C462   1.412       .  A
C462        H465   1.083       .  S
C466        C477   1.494       .  S
C466        C467   1.410       .  A
C466        C471   1.410       .  A
C467        H472   1.083       .  S
C467        C468   1.405       .  A
C468        C469   1.401       .  A
C469        H473   1.084       .  S
C469        C470   1.403       .  A
C470        C486   1.483       .  S
C470        C471   1.406       .  A
C471        H474   1.083       .  S
C475       C1759   1.475       .  S
C475        C476   1.403       .  A
C475        C480   1.388       .  A
C476        H481   1.083       .  S
C476        C477   1.418       .  A
C477        C478   1.418       .  A
C478        H482   1.083       .  S
C478        C479   1.403       .  A
C479       C1769   1.475       .  S
C479        C480   1.388       .  A
C480        H483   1.086       .  S
C484       C2206   1.475       .  S
C484        C485   1.401       .  A
C484        C489   1.392       .  A
C485        H490   1.083       .  S
C485        C486   1.413       .  A
C486        C487   1.413       .  A
C487        H491   1.083       .  S
C487        C488   1.405       .  A
C488       C1879   1.477       .  S
C488        C489   1.391       .  A
C489        H492   1.086       .  S
C493       C1736   1.481   1_565  S
C493        C494   1.407       .  A
C493        C498   1.390       .  A
C494        H499   1.082       .  S
C494        C495   1.419       .  A
C495        C504   1.493       .  S
C495        C496   1.417       .  A
C496        H500   1.083       .  S
C496        C497   1.398       .  A
C497       C1746   1.472       .  S
C497        C498   1.388       .  A
C498        H501   1.086   1_565  S
C502        C515   1.498       .  S
C502        C503   1.411       .  A
C502        C507   1.412       .  A
C503        H508   1.082       .  S
C503        C504   1.407       .  A
C504        C505   1.406       .  A
C505        H509   1.082       .  S
C505        C506   1.404       .  A
C506        C524   1.495       .  S
C506        C507   1.408       .  A
C507        H510   1.081       .  S
C511       C1726   1.476       .  S
C511        C512   1.387       .  A
C511        C516   1.404       .  A
C512        H517   1.087       .  S
C512        C513   1.386       .  A
C513       C2149   1.477       .  S
C513        C514   1.403       .  A
C514        H518   1.082       .  S
C514        C515   1.419       .  A
C515        C516   1.420       .  A
C516        H519   1.082       .  S
C520       C1716   1.474       .  S
C520        C521   1.388       .  A
C520        C525   1.402       .  A
C521        H526   1.086       .  S
C521        C522   1.389       .  A
C522       C1869   1.474       .  S
C522        C523   1.403       .  A
C523        H527   1.082       .  S
C523        C524   1.417       .  A
C524        C525   1.419       .  A
C525        H528   1.083       .  S
O529       Mg531   2.107   1_554  S
O529       Mg537   2.103       .  S
O529        C564   1.240       .  S
C530        O543   1.239       .  S
C530        O567   1.273       .  A
C530        H569   1.080       .  S
Mg531       O560   2.115       .  S
Mg531       O575   2.323       .  S
Mg531       O571   2.237       .  S
Mg531       O542   2.315   1_545  S
O532       Mg574   2.119       .  S
O532       Mg557   2.117   1_565  S
O532        C553   1.240       .  S
O533        C564   1.274       .  A
O533       Mg557   2.313       .  S
C534        O536   1.266       .  A
C534        O548   1.272       .  A
C534       C1729   1.483       .  S
O535        C563   1.275       .  A
O535       Mg537   2.308   1_556  S
O536       Mg568   2.239       .  S
Mg537       O543   2.126       .  S
Mg537       O551   2.251       .  S
Mg537       O539   2.342       .  S
C538        O576   1.267   1_554  A
C538        O544   1.274       .  A
C538       C1706   1.475       .  S
O539        C546   1.275       .  A
H540        C553   1.081       .  S
C541        O555   1.240       .  S
C541        O556   1.275       .  A
C541        H566   1.081       .  S
O542        C565   1.274       .  A
O543       Mg557   2.100       .  S
O544       Mg574   2.330       .  S
C545        O558   1.271   1_545  A
C545        O550   1.273       .  A
C545       C1689   1.471       .  S
C546        O573   1.266       .  A
C546       C1766   1.484       .  S
Mg547       O554   2.123       .  S
Mg547       O555   2.096       .  S
Mg547       O548   2.331       .  S
Mg547       O549   2.322   1_556  S
Mg547       O576   2.231       .  S
O549        C553   1.275       .  A
O550       Mg557   2.309       .  S
O551        C570   1.271   1_554  A
O552        C572   1.273       .  A
O552       Mg568   2.317       .  S
O554       Mg568   2.099       .  S
O554        C565   1.239       .  S
O555       Mg574   2.122   1_556  S
O556       Mg568   2.324       .  S
Mg557       O573   2.235       .  S
O558       Mg574   2.245       .  S
H559        C564   1.081       .  S
O560       Mg568   2.115   1_545  S
O560        C563   1.241       .  S
H561        C563   1.080       .  S
H562        C565   1.081       .  S
O567       Mg574   2.302   1_545  S
C570        O575   1.275       .  A
C570       C1699   1.479       .  S
O571        C572   1.270   1_545  A
C572       C1676   1.472       .  S
C577       C1666   1.481   1_556  S
C577        C578   1.392       .  A
C577        C582   1.406       .  A
C578        H583   1.086       .  S
C578        C579   1.392       .  A
C579       C1696   1.476       .  S
C579        C580   1.402       .  A
C580        H584   1.083       .  S
C580        C581   1.415       .  A
C581        C590   1.492       .  S
C581        C582   1.418       .  A
C582        H585   1.083       .  S
C586        C606   1.489       .  S
C586        C587   1.408       .  A
C586        C591   1.408       .  A
C587        H592   1.082       .  S
C587        C588   1.406       .  A
C588        C599   1.494       .  S
C588        C589   1.411       .  A
C589        H593   1.083       .  S
C589        C590   1.407       .  A
C590        C591   1.404       .  A
C591        H594   1.083       .  S
C595       C1656   1.470       .  S
C595        C596   1.386       .  A
C595        C600   1.398       .  A
C596        H601   1.086       .  S
C596        C597   1.390       .  A
C597       C1849   1.483       .  S
C597        C598   1.409       .  A
C598        H602   1.082       .  S
C598        C599   1.421       .  A
C599        C600   1.415       .  A
C600        H603   1.083       .  S
C604       C2139   1.477       .  S
C604        C605   1.404       .  A
C604        C609   1.391       .  A
C605        H610   1.083       .  S
C605        C606   1.417       .  A
C606        C607   1.415       .  A
C607        H611   1.083       .  S
C607        C608   1.399       .  A
C608       C1646   1.471       .  S
C608        C609   1.390       .  A
C609        H612   1.086       .  S
C613       C1709   1.470       .  S
C613        C614   1.400       .  A
C613        C618   1.390       .  A
C614        H619   1.083       .  S
C614        C615   1.413       .  A
C615        C633   1.488       .  S
C615        C616   1.417       .  A
C616        H620   1.083       .  S
C616        C617   1.404       .  A
C617       C1639   1.476   1_554  S
C617        C618   1.391       .  A
C618        H621   1.086   1_554  S
C622       C2269   1.512       .  S
C622        C623   1.401       .  A
C622        C627   1.420       .  A
C623        H628   1.085       .  S
C623        C624   1.389       .  A
C624       C1899   1.472       .  S
C624        C625   1.390       .  A
C625        H629   1.083       .  S
C625        C626   1.411       .  A
C626        C635   1.493       .  S
C626        C627   1.425       .  A
C627        H630   1.079       .  S
C631        C642   1.490       .  S
C631        C632   1.404       .  A
C631        C636   1.402       .  A
C632        H637   1.083       .  S
C632        C633   1.408       .  A
C633        C634   1.412       .  A
C634        H638   1.083       .  S
C634        C635   1.405       .  A
C635        C636   1.411       .  A
C636        H639   1.083       .  S
C640       C1616   1.476       .  S
C640        C641   1.404       .  A
C640        C645   1.391       .  A
C641        H646   1.083       .  S
C641        C642   1.416       .  A
C642        C643   1.414       .  A
C643        H647   1.083       .  S
C643        C644   1.405       .  A
C644       C1629   1.478       .  S
C644        C645   1.392       .  A
C645        H648   1.086       .  S
O649       Mg651   2.118   1_455  S
O649       Mg657   2.107       .  S
O649        C684   1.241       .  S
C650        O663   1.240       .  S
C650        O687   1.275       .  A
C650        H689   1.081       .  S
Mg651       O680   2.116       .  S
Mg651       O695   2.335       .  S
Mg651       O691   2.252       .  S
Mg651       O662   2.302   1_554  S
O652       Mg694   2.103       .  S
O652       Mg677   2.135   1_556  S
O652        C673   1.241       .  S
O653        C684   1.274       .  A
O653       Mg677   2.307       .  S
C654        O656   1.268       .  A
C654        O668   1.274       .  A
C654       C1649   1.478       .  S
O655        C683   1.273       .  A
O655       Mg657   2.310   1_655  S
O656       Mg688   2.237       .  S
Mg657       O663   2.121       .  S
Mg657       O671   2.248       .  S
Mg657       O659   2.320       .  S
C658        O696   1.270   1_455  A
C658        O664   1.274       .  A
C658       C1596   1.478       .  S
O659        C666   1.275       .  A
H660        C673   1.080       .  S
C661        O675   1.240       .  S
C661        O676   1.275       .  A
C661        H686   1.081       .  S
O662        C685   1.274       .  A
O663       Mg677   2.117       .  S
O664       Mg694   2.327       .  S
C665        O678   1.267   1_554  A
C665        O670   1.277       .  A
C665       C1609   1.483       .  S
C666        O693   1.273       .  A
C666       C1626   1.477       .  S
Mg667       O674   2.120       .  S
Mg667       O675   2.111       .  S
Mg667       O668   2.331       .  S
Mg667       O669   2.314   1_655  S
Mg667       O696   2.244       .  S
O669        C673   1.275       .  A
O670       Mg677   2.355       .  S
O671        C690   1.271   1_455  A
O672        C692   1.274       .  A
O672       Mg688   2.320       .  S
O674       Mg688   2.106       .  S
O674        C685   1.240       .  S
O675       Mg694   2.115   1_655  S
O676       Mg688   2.319       .  S
Mg677       O693   2.257       .  S
O678       Mg694   2.235       .  S
H679        C684   1.082       .  S
O680       Mg688   2.113   1_554  S
O680        C683   1.240       .  S
H681        C683   1.082       .  S
H682        C685   1.080       .  S
O687       Mg694   2.322   1_554  S
C690        O695   1.276       .  A
C690       C1589   1.483       .  S
O691        C692   1.271   1_554  A
C692       C1576   1.474       .  S
C697        C708   1.499       .  S
C697        C698   1.411       .  A
C697        C702   1.413       .  A
C698        H703   1.082       .  S
C698        C699   1.408       .  A
C699        C719   1.491       .  S
C699        C700   1.406       .  A
C700        H704   1.083       .  S
C700        C701   1.403       .  A
C701        C728   1.493       .  S
C701        C702   1.408       .  A
C702        H705   1.082       .  S
C706       C1826   1.486       .  S
C706        C707   1.408       .  A
C706        C711   1.390       .  A
C707        H712   1.082       .  S
C707        C708   1.421       .  A
C708        C709   1.418       .  A
C709        H713   1.083       .  S
C709        C710   1.402       .  A
C710       C1566   1.476   1_655  S
C710        C711   1.387       .  A
C711        H714   1.086   1_655  S
C715       C2159   1.477   1_545  S
C715        C716   1.392       .  A
C715        C720   1.406       .  A
C716        H721   1.086   1_545  S
C716        C717   1.390       .  A
C717       C1969   1.472       .  S
C717        C718   1.399       .  A
C718        H722   1.083       .  S
C718        C719   1.415       .  A
C719        C720   1.418       .  A
C720        H723   1.083       .  S
C724       C1559   1.479       .  S
C724        C725   1.392       .  A
C724        C729   1.404       .  A
C725        H730   1.086       .  S
C725        C726   1.391       .  A
C726       C2056   1.476       .  S
C726        C727   1.405       .  A
C727        H731   1.083       .  S
C727        C728   1.416       .  A
C728        C729   1.417       .  A
C729        H732   1.083       .  S
C733       C1546   1.476   1_455  S
C733        C734   1.397       .  A
C733        C738   1.388       .  A
C734        H739   1.083       .  S
C734        C735   1.417       .  A
C735        C755   1.491       .  S
C735        C736   1.418       .  A
C736        H740   1.081       .  S
C736        C737   1.403       .  A
C737       C1536   1.481       .  S
C737        C738   1.394       .  A
C738        H741   1.086   1_455  S
C742       C1526   1.472   1_554  S
C742        C743   1.392       .  A
C742        C747   1.400       .  A
C743        H748   1.086   1_554  S
C743        C744   1.393       .  A
C744       C1606   1.478       .  S
C744        C745   1.404       .  A
C745        H749   1.083       .  S
C745        C746   1.417       .  A
C746        C753   1.487       .  S
C746        C747   1.412       .  A
C747        H750   1.083       .  S
C751        C762   1.485       .  S
C751        C752   1.407       .  A
C751        C756   1.405       .  A
C752        H757   1.084       .  S
C752        C753   1.405       .  A
C753        C754   1.401       .  A
C754        H758   1.082       .  S
C754        C755   1.408       .  A
C755        C756   1.409       .  A
C756        H759   1.082       .  S
C760       C1686   1.474       .  S
C760        C761   1.399       .  A
C760        C765   1.394       .  A
C761        H766   1.084       .  S
C761        C762   1.410       .  A
C762        C763   1.415       .  A
C763        H767   1.083       .  S
C763        C764   1.409       .  A
C764       C1516   1.487   1_545  S
C764        C765   1.396       .  A
C765        H768   1.085   1_545  S
O769       Mg771   2.109       .  S
O769       Mg777   2.134       .  S
O769        C804   1.241       .  S
C770        O783   1.238       .  S
C770        O807   1.272       .  A
C770        H809   1.081       .  S
Mg771       O800   2.125       .  S
Mg771       O815   2.309       .  S
Mg771       O811   2.277       .  S
Mg771       O782   2.292       .  S
O772       Mg814   2.126       .  S
O772       Mg797   2.111       .  S
O772        C793   1.240       .  S
O773        C804   1.273       .  A
O773       Mg797   2.294       .  S
C774        O776   1.271       .  A
C774        O788   1.273       .  A
C774       C1506   1.489       .  S
O775        C803   1.273       .  A
O775       Mg777   2.291       .  S
O776       Mg808   2.263       .  S
Mg777       O783   2.110       .  S
Mg777       O791   2.267       .  S
Mg777       O779   2.292       .  S
C778        O816   1.270       .  A
C778        O784   1.276       .  A
C778       C1659   1.480       .  S
O779        C786   1.274       .  A
H780        C793   1.081       .  S
C781        O795   1.241       .  S
C781        O796   1.274       .  A
C781        H806   1.081       .  S
O782        C805   1.272       .  A
O783       Mg797   2.130       .  S
O784       Mg814   2.312       .  S
C785        O798   1.272       .  A
C785        O790   1.280       .  A
C785       C2089   1.476       .  S
C786        O813   1.274       .  A
C786       C1739   1.495       .  S
Mg787       O794   2.100       .  S
Mg787       O795   2.132       .  S
Mg787       O788   2.293       .  S
Mg787       O789   2.299       .  S
Mg787       O816   2.248       .  S
O789        C793   1.273       .  A
O790       Mg797   2.339       .  S
O791        C810   1.273       .  A
O792        C812   1.277       .  A
O792       Mg808   2.317       .  S
O794       Mg808   2.127       .  S
O794        C805   1.239       .  S
O795       Mg814   2.108       .  S
O796       Mg808   2.297       .  S
Mg797       O813   2.271       .  S
O798       Mg814   2.260       .  S
H799        C804   1.081       .  S
O800       Mg808   2.102       .  S
O800        C803   1.241       .  S
H801        C803   1.081       .  S
H802        C805   1.081       .  S
O807       Mg814   2.294       .  S
C810        O815   1.277       .  A
C810       C1569   1.486       .  S
O811        C812   1.274       .  A
C812       C1529   1.483       .  S
O817       Mg819   2.129       .  S
O817       Mg825   2.095       .  S
O817        C852   1.241       .  S
C818        O831   1.241       .  S
C818        O855   1.277       .  A
C818        H857   1.081       .  S
Mg819       O848   2.115       .  S
Mg819       O863   2.360       .  S
Mg819       O859   2.256       .  S
Mg819       O830   2.312       .  S
O820       Mg862   2.092       .  S
O820       Mg845   2.118       .  S
O820        C841   1.240       .  S
O821        C852   1.275       .  A
O821       Mg845   2.315       .  S
C822        O824   1.268       .  A
C822        O836   1.272       .  A
C822       C1496   1.483       .  S
O823        C851   1.275       .  A
O823       Mg825   2.321       .  S
O824       Mg856   2.242       .  S
Mg825       O831   2.126       .  S
Mg825       O839   2.241       .  S
Mg825       O827   2.313       .  S
C826        O864   1.266       .  A
C826        O832   1.275       .  A
C826       C1556   1.484       .  S
O827        C834   1.272       .  A
H828        C841   1.081       .  S
C829        O843   1.240       .  S
C829        O844   1.275       .  A
C829        H854   1.081       .  S
O830        C853   1.275       .  A
O831       Mg845   2.109       .  S
O832       Mg862   2.350       .  S
C833        O846   1.268       .  A
C833        O838   1.275       .  A
C833       C1549   1.483       .  S
C834        O861   1.270       .  A
C834       C1486   1.478       .  S
Mg835       O842   2.124       .  S
Mg835       O843   2.095       .  S
Mg835       O836   2.322       .  S
Mg835       O837   2.326       .  S
Mg835       O864   2.238       .  S
O837        C841   1.275       .  A
O838       Mg845   2.338       .  S
O839        C858   1.266       .  A
O840        C860   1.274       .  A
O840       Mg856   2.310       .  S
O842       Mg856   2.107       .  S
O842        C853   1.241       .  S
O843       Mg862   2.126       .  S
O844       Mg856   2.321       .  S
Mg845       O861   2.247       .  S
O846       Mg862   2.241       .  S
H847        C852   1.080       .  S
O848       Mg856   2.111       .  S
O848        C851   1.240       .  S
H849        C851   1.081       .  S
H850        C853   1.081       .  S
O855       Mg862   2.329       .  S
C858        O863   1.277       .  A
C858       C1669   1.488       .  S
O859        C860   1.273       .  A
C860       C2109   1.475       .  S
C865       C1476   1.476   1_556  S
C865        C866   1.391       .  A
C865        C870   1.402       .  A
C866        H871   1.086   1_556  S
C866        C867   1.391       .  A
C867       C1839   1.477       .  S
C867        C868   1.404       .  A
C868        H872   1.083       .  S
C868        C869   1.416       .  A
C869        C874   1.489       .  S
C869        C870   1.415       .  A
C870        H873   1.083       .  S
C874        C875   1.404       .  A
C874        C879   1.404       .  A
C875        H880   1.083       .  S
C875        C876   1.411       .  A
C876        C887   1.496       .  S
C876        C877   1.409       .  A
C877        H881   1.082       .  S
C877        C878   1.410       .  A
C878        C896   1.491       .  S
C878        C879   1.406       .  A
C879        H882   1.083       .  S
C883       C2026   1.485       .  S
C883        C884   1.392       .  A
C883        C888   1.409       .  A
C884        H889   1.086   1_455  S
C884        C885   1.388       .  A
C885       C2179   1.474   1_455  S
C885        C886   1.398       .  A
C886        H890   1.083       .  S
C886        C887   1.416       .  A
C887        C888   1.421       .  A
C888        H891   1.082       .  S
C892       C1509   1.474       .  S
C892        C893   1.389       .  A
C892        C897   1.403       .  A
C893        H898   1.087       .  S
C893        C894   1.388       .  A
C894       C1939   1.474       .  S
C894        C895   1.402       .  A
C895        H899   1.083       .  S
C895        C896   1.418       .  A
C896        C897   1.416       .  A
C897        H900   1.083       .  S
O901       Mg903   2.126       .  S
O901       Mg909   2.129       .  S
O901        C936   1.241       .  S
C902        O915   1.240       .  S
C902        O939   1.275       .  A
C902        H941   1.082       .  S
Mg903       O932   2.121       .  S
Mg903       O947   2.344       .  S
Mg903       O943   2.260       .  S
Mg903       O914   2.310       .  S
O904       Mg946   2.107       .  S
O904       Mg929   2.127       .  S
O904        C925   1.239       .  S
O905        C936   1.274       .  A
O905       Mg929   2.300       .  S
C906        O908   1.270       .  A
C906        O920   1.275       .  A
C906       C1459   1.480       .  S
O907        C935   1.271       .  A
O907       Mg909   2.298       .  S
O908       Mg940   2.244       .  S
Mg909       O915   2.127       .  S
Mg909       O923   2.267       .  S
Mg909       O911   2.375       .  S
C910        O948   1.271       .  A
C910        O916   1.275       .  A
C910       C2079   1.476       .  S
O911        C918   1.281       .  A
H912        C925   1.082       .  S
C913        O927   1.240       .  S
C913        O928   1.274       .  A
C913        H938   1.082       .  S
O914        C937   1.276       .  A
O915       Mg929   2.109       .  S
O916       Mg946   2.328       .  S
C917        O930   1.267       .  A
C917        O922   1.276       .  A
C917       C1719   1.482       .  S
C918        O945   1.270       .  A
C918       C1466   1.498       .  S
Mg919       O926   2.124       .  S
Mg919       O927   2.117       .  S
Mg919       O920   2.331       .  S
Mg919       O921   2.307       .  S
Mg919       O948   2.256       .  S
O921        C925   1.274       .  A
O922       Mg929   2.346       .  S
O923        C942   1.276       .  A
O924        C944   1.273       .  A
O924       Mg940   2.306       .  S
O926       Mg940   2.112       .  S
O926        C937   1.242       .  S
O927       Mg946   2.108       .  S
O928       Mg940   2.310       .  S
Mg929       O945   2.204       .  S
O930       Mg946   2.237       .  S
H931        C936   1.082       .  S
O932       Mg940   2.121       .  S
O932        C935   1.238       .  S
H933        C935   1.081       .  S
H934        C937   1.082       .  S
O939       Mg946   2.322       .  S
C942        O947   1.279       .  A
C942       C1519   1.481       .  S
O943        C944   1.273       .  A
C944       C1479   1.476       .  S
C949       C1489   1.472   1_565  S
C949        C950   1.387       .  A
C949        C954   1.399       .  A
C950        H955   1.086       .  S
C950        C951   1.390       .  A
C951       C1819   1.483       .  S
C951        C952   1.408       .  A
C952        H956   1.082       .  S
C952        C953   1.421       .  A
C953        C958   1.498       .  S
C953        C954   1.417       .  A
C954        H957   1.082       .  S
C958        C959   1.404       .  A
C958        C963   1.406       .  A
C959        H964   1.083       .  S
C959        C960   1.408       .  A
C960        C971   1.484       .  S
C960        C961   1.412       .  A
C961        H965   1.083       .  S
C961        C962   1.407       .  A
C962        C980   1.497       .  S
C962        C963   1.411       .  A
C963        H966   1.082       .  S
C967       C2169   1.480   1_554  S
C967        C968   1.393       .  A
C967        C972   1.403       .  A
C968        H973   1.086   1_554  S
C968        C969   1.393       .  A
C969       C1906   1.475       .  S
C969        C970   1.404       .  A
C970        H974   1.083       .  S
C970        C971   1.411       .  A
C971        C972   1.413       .  A
C972        H975   1.084       .  S
C976       C1469   1.508       .  S
C976        C977   1.400       .  A
C976        C981   1.420       .  A
C977        H982   1.086       .  S
C977        C978   1.389       .  A
C978       C1989   1.475       .  S
C978        C979   1.391       .  A
C979        H983   1.083       .  S
C979        C980   1.413       .  A
C980        C981   1.426       .  A
C981        H984   1.081       .  S
C985       C1005   1.486       .  S
C985        C986   1.405       .  A
C985        C990   1.404       .  A
C986        H991   1.083       .  S
C986        C987   1.407       .  A
C987       C1016   1.493       .  S
C987        C988   1.410       .  A
C988        H992   1.082       .  S
C988        C989   1.408       .  A
C989        C998   1.492       .  S
C989        C990   1.407       .  A
C990        H993   1.083       .  S
C994       C1456   1.474   1_655  S
C994        C995   1.390       .  A
C994        C999   1.401       .  A
C995       H1000   1.086   1_655  S
C995        C996   1.391       .  A
C996       C1586   1.475       .  S
C996        C997   1.404       .  A
C997       H1001   1.083       .  S
C997        C998   1.417       .  A
C998        C999   1.416       .  A
C999       H1002   1.083       .  S
C1003      C2129   1.474       .  S
C1003      C1004   1.403       .  A
C1003      C1008   1.390       .  A
C1004      H1009   1.083       .  S
C1004      C1005   1.413       .  A
C1005      C1006   1.414       .  A
C1006      H1010   1.083       .  S
C1006      C1007   1.403       .  A
C1007      C1446   1.472       .  S
C1007      C1008   1.391       .  A
C1008      H1011   1.086       .  S
C1012      C1499   1.473       .  S
C1012      C1013   1.389       .  A
C1012      C1017   1.402       .  A
C1013      H1018   1.086       .  S
C1013      C1014   1.388       .  A
C1014      C1859   1.474       .  S
C1014      C1015   1.403       .  A
C1015      H1019   1.083       .  S
C1015      C1016   1.418       .  A
C1016      C1017   1.416       .  A
C1017      H1020   1.083       .  S
C1021      C1796   1.474       .  S
C1021      C1022   1.389       .  A
C1021      C1026   1.393       .  A
C1022      H1027   1.085       .  S
C1022      C1023   1.399       .  A
C1023      C2289   1.506   1_455  S
C1023      C1024   1.416       .  A
C1024      H1028   1.080       .  S
C1024      C1025   1.424       .  A
C1025      C1030   1.496       .  S
C1025      C1026   1.412       .  A
C1026      H1029   1.083       .  S
C1030      C1031   1.412       .  A
C1030      C1035   1.407       .  A
C1031      H1036   1.083       .  S
C1031      C1032   1.404       .  A
C1032      C1041   1.496       .  S
C1032      C1033   1.409       .  A
C1033      H1037   1.084       .  S
C1033      C1034   1.411       .  A
C1034      C1052   1.488       .  S
C1034      C1035   1.408       .  A
C1035      H1038   1.083       .  S
C1039      C2009   1.484       .  S
C1039      C1040   1.408       .  A
C1039      C1044   1.395       .  A
C1040      H1045   1.083       .  S
C1040      C1041   1.415       .  A
C1041      C1042   1.419       .  A
C1042      H1046   1.083       .  S
C1042      C1043   1.407       .  A
C1043      C1436   1.483   1_565  S
C1043      C1044   1.392       .  A
C1044      H1047   1.086       .  S
C1048      C1426   1.485       .  S
C1048      C1049   1.397       .  A
C1048      C1053   1.405       .  A
C1049      H1054   1.085       .  S
C1049      C1050   1.397       .  A
C1050      C2019   1.490       .  S
C1050      C1051   1.408       .  A
C1051      H1055   1.083       .  S
C1051      C1052   1.414       .  A
C1052      C1053   1.412       .  A
C1053      H1056   1.084       .  S
C1057      C1786   1.475       .  S
C1057      C1058   1.403       .  A
C1057      C1062   1.391       .  A
C1058      H1063   1.083       .  S
C1058      C1059   1.415       .  A
C1059      C1068   1.486       .  S
C1059      C1060   1.414       .  A
C1060      H1064   1.083       .  S
C1060      C1061   1.398       .  A
C1061      C1419   1.470   1_545  S
C1061      C1062   1.390       .  A
C1062      H1065   1.086   1_545  S
C1066      C1086   1.492       .  S
C1066      C1067   1.403       .  A
C1066      C1071   1.407       .  A
C1067      H1072   1.083       .  S
C1067      C1068   1.402       .  A
C1068      C1069   1.405       .  A
C1069      H1073   1.081       .  S
C1069      C1070   1.410       .  A
C1070      C1077   1.500       .  S
C1070      C1071   1.415       .  A
C1071      H1074   1.081       .  S
C1075      C1926   1.472       .  S
C1075      C1076   1.399       .  A
C1075      C1080   1.386       .  A
C1076      H1081   1.082       .  S
C1076      C1077   1.418       .  A
C1077      C1078   1.423       .  A
C1078      H1082   1.081       .  S
C1078      C1079   1.405       .  A
C1079      C1406   1.480   1_556  S
C1079      C1080   1.387       .  A
C1080      H1083   1.087   1_556  S
C1084      C1979   1.476       .  S
C1084      C1085   1.400       .  A
C1084      C1089   1.392       .  A
C1085      H1090   1.083       .  S
C1085      C1086   1.416       .  A
C1086      C1087   1.416       .  A
C1087      H1091   1.083       .  S
C1087      C1088   1.406       .  A
C1088      C2199   1.482       .  S
C1088      C1089   1.394       .  A
C1089      H1092   1.086       .  S
O1093     Mg1095   2.112       .  S
O1093     Mg1101   2.116       .  S
O1093      C1128   1.240       .  S
C1094      O1107   1.242       .  S
C1094      O1131   1.276       .  A
C1094      H1133   1.082       .  S
Mg1095     O1124   2.112       .  S
Mg1095     O1139   2.327       .  S
Mg1095     O1135   2.256       .  S
Mg1095     O1106   2.307   1_565  S
O1096     Mg1138   2.101       .  S
O1096     Mg1121   2.133   1_545  S
O1096      C1117   1.240       .  S
O1097      C1128   1.273       .  A
O1097     Mg1121   2.304   1_655  S
C1098      O1100   1.260   1_455  A
C1098      O1112   1.277       .  A
C1098      C1539   1.502       .  S
O1099      C1127   1.270       .  A
O1099     Mg1101   2.291       .  S
O1100     Mg1132   2.177       .  S
Mg1101     O1107   2.113   1_655  S
Mg1101     O1115   2.246       .  S
Mg1101     O1103   2.312       .  S
C1102      O1140   1.271       .  A
C1102      O1108   1.274       .  A
C1102      C1396   1.485       .  S
O1103      C1110   1.274       .  A
H1104      C1117   1.080       .  S
C1105      O1119   1.238       .  S
C1105      O1120   1.272       .  A
C1105      H1130   1.082       .  S
O1106      C1129   1.276       .  A
O1107     Mg1121   2.107       .  S
O1108     Mg1138   2.328       .  S
C1109      O1122   1.268   1_565  A
C1109      O1114   1.272       .  A
C1109      C1749   1.479       .  S
C1110      O1137   1.271   1_655  A
C1110      C1386   1.474       .  S
Mg1111     O1118   2.123   1_455  S
Mg1111     O1119   2.112       .  S
Mg1111     O1112   2.355       .  S
Mg1111     O1113   2.317       .  S
Mg1111     O1140   2.253       .  S
O1113      C1117   1.274       .  A
O1114     Mg1121   2.324       .  S
O1115      C1134   1.271       .  A
O1116      C1136   1.271       .  A
O1116     Mg1132   2.299       .  S
O1118     Mg1132   2.112       .  S
O1118      C1129   1.242       .  S
O1119     Mg1138   2.121       .  S
O1120     Mg1132   2.304   1_455  S
Mg1121     O1137   2.245       .  S
O1122     Mg1138   2.243       .  S
H1123      C1128   1.081       .  S
O1124     Mg1132   2.088   1_565  S
O1124      C1127   1.237       .  S
H1125      C1127   1.079       .  S
H1126      C1129   1.081       .  S
O1131     Mg1138   2.323   1_565  S
C1134      O1139   1.276       .  A
C1134      C1449   1.477       .  S
O1135      C1136   1.271   1_565  A
C1136      C1779   1.471       .  S
C1141      C1599   1.477       .  S
C1141      C1142   1.393       .  A
C1141      C1146   1.403       .  A
C1142      H1147   1.086       .  S
C1142      C1143   1.395       .  A
C1143      C2239   1.482   1_455  S
C1143      C1144   1.406       .  A
C1144      H1148   1.083       .  S
C1144      C1145   1.413       .  A
C1145      C1150   1.488       .  S
C1145      C1146   1.414       .  A
C1146      H1149   1.083       .  S
C1150      C1151   1.405       .  A
C1150      C1155   1.409       .  A
C1151      H1156   1.084       .  S
C1151      C1152   1.404       .  A
C1152      C1170   1.488       .  S
C1152      C1153   1.406       .  A
C1153      H1157   1.082       .  S
C1153      C1154   1.408       .  A
C1154      C1161   1.496       .  S
C1154      C1155   1.411       .  A
C1155      H1158   1.083       .  S
C1159      C1399   1.475       .  S
C1159      C1160   1.405       .  A
C1159      C1164   1.389       .  A
C1160      H1165   1.082       .  S
C1160      C1161   1.418       .  A
C1161      C1162   1.419       .  A
C1162      H1166   1.083       .  S
C1162      C1163   1.402       .  A
C1163      C1376   1.475       .  S
C1163      C1164   1.389       .  A
C1164      H1167   1.086       .  S
C1168      C1889   1.473       .  S
C1168      C1169   1.400       .  A
C1168      C1173   1.392       .  A
C1169      H1174   1.083       .  S
C1169      C1170   1.414       .  A
C1170      C1171   1.416       .  A
C1171      H1175   1.083       .  S
C1171      C1172   1.403       .  A
C1172      C1366   1.476       .  S
C1172      C1173   1.392       .  A
C1173      H1176   1.086       .  S
O1177     Mg1179   2.130       .  S
O1177     Mg1185   2.099       .  S
O1177      C1212   1.239       .  S
C1178      O1191   1.242       .  S
C1178      O1215   1.275       .  A
C1178      H1217   1.081       .  S
Mg1179     O1208   2.091       .  S
Mg1179     O1223   2.330       .  S
Mg1179     O1219   2.239       .  S
Mg1179     O1190   2.327       .  S
O1180     Mg1222   2.113       .  S
O1180     Mg1205   2.116       .  S
O1180      C1201   1.240       .  S
O1181      C1212   1.274       .  A
O1181     Mg1205   2.317       .  S
C1182      O1184   1.272       .  A
C1182      O1196   1.279       .  A
C1182      C1439   1.485       .  S
O1183      C1211   1.278       .  A
O1183     Mg1185   2.334       .  S
O1184     Mg1216   2.250       .  S
Mg1185     O1191   2.118       .  S
Mg1185     O1199   2.249       .  S
Mg1185     O1187   2.339       .  S
C1186      O1224   1.271       .  A
C1186      O1192   1.276       .  A
C1186      C1379   1.483       .  S
O1187      C1194   1.276       .  A
H1188      C1201   1.082       .  S
C1189      O1203   1.239       .  S
C1189      O1204   1.273       .  A
C1189      H1214   1.081       .  S
O1190      C1213   1.277       .  A
O1191     Mg1205   2.114       .  S
O1192     Mg1222   2.337       .  S
C1193      O1206   1.272       .  A
C1193      O1198   1.274       .  A
C1193      C1356   1.477       .  S
C1194      O1221   1.270       .  A
C1194      C1619   1.481       .  S
Mg1195     O1202   2.117       .  S
Mg1195     O1203   2.109       .  S
Mg1195     O1196   2.351       .  S
Mg1195     O1197   2.317       .  S
Mg1195     O1224   2.248       .  S
O1197      C1201   1.274       .  A
O1198     Mg1205   2.317       .  S
O1199      C1218   1.266       .  A
O1200      C1220   1.273       .  A
O1200     Mg1216   2.340       .  S
O1202     Mg1216   2.111       .  S
O1202      C1213   1.242       .  S
O1203     Mg1222   2.130       .  S
O1204     Mg1216   2.307       .  S
Mg1205     O1221   2.241       .  S
O1206     Mg1222   2.259       .  S
H1207      C1212   1.081       .  S
O1208     Mg1216   2.136       .  S
O1208      C1211   1.241       .  S
H1209      C1211   1.082       .  S
H1210      C1213   1.081       .  S
O1215     Mg1222   2.306       .  S
C1218      O1223   1.271       .  A
C1218      C1409   1.491       .  S
O1219      C1220   1.266       .  A
C1220      C1756   1.484       .  S
C1225      C1256   1.481       .  S
C1225      C1226   1.403       .  A
C1225      C1230   1.404       .  A
C1226      H1231   1.084       .  S
C1226      C1227   1.404       .  A
C1227      C1247   1.482       .  S
C1227      C1228   1.408       .  A
C1228      H1232   1.084       .  S
C1228      C1229   1.408       .  A
C1229      C1236   1.486       .  S
C1229      C1230   1.405       .  A
C1230      H1233   1.084       .  S
C1234      C1809   1.480       .  S
C1234      C1235   1.406       .  A
C1234      C1239   1.391       .  A
C1235      H1240   1.083       .  S
C1235      C1236   1.414       .  A
C1236      C1237   1.414       .  A
C1237      H1241   1.083       .  S
C1237      C1238   1.402       .  A
C1238      C2229   1.475   1_554  S
C1238      C1239   1.392       .  A
C1239      H1242   1.086   1_554  S
C1243      C1359   1.479   1_655  S
C1243      C1244   1.397       .  A
C1243      C1248   1.404       .  A
C1244      H1249   1.085   1_655  S
C1244      C1245   1.395       .  A
C1245      C2046   1.484       .  S
C1245      C1246   1.405       .  A
C1246      H1250   1.083       .  S
C1246      C1247   1.412       .  A
C1247      C1248   1.410       .  A
C1248      H1251   1.083       .  S
C1252      C2249   1.475       .  S
C1252      C1253   1.394       .  A
C1252      C1257   1.403       .  A
C1253      H1258   1.085       .  S
C1253      C1254   1.396       .  A
C1254      C1916   1.483       .  S
C1254      C1255   1.403       .  A
C1255      H1259   1.083       .  S
C1255      C1256   1.410       .  A
C1256      C1257   1.411       .  A
C1257      H1260   1.083       .  S
C1261      C1283   1.484       .  S
C1261      C1262   1.404       .  A
C1261      C1266   1.405       .  A
C1262      H1267   1.083       .  S
C1262      C1263   1.406       .  A
C1263      C1274   1.482       .  S
C1263      C1264   1.405       .  A
C1264      H1268   1.084       .  S
C1264      C1265   1.403       .  A
C1265      C1292   1.480       .  S
C1265      C1266   1.403       .  A
C1266      H1269   1.084       .  S
C1270      C1346   1.476   1_655  S
C1270      C1271   1.392       .  A
C1270      C1275   1.403       .  A
C1271      H1276   1.086   1_655  S
C1271      C1272   1.391       .  A
C1272      C1389   1.471       .  S
C1272      C1273   1.399       .  A
C1273      H1277   1.083       .  S
C1273      C1274   1.411       .  A
C1274      C1275   1.413       .  A
C1275      H1278   1.083       .  S
C1279      C2189   1.479   1_565  S
C1279      C1280   1.393       .  A
C1279      C1284   1.405       .  A
C1280      H1285   1.086   1_565  S
C1280      C1281   1.393       .  A
C1281      C1679   1.470       .  S
C1281      C1282   1.398       .  A
C1282      H1286   1.083       .  S
C1282      C1283   1.411       .  A
C1283      C1284   1.414       .  A
C1284      H1287   1.083       .  S
C1288      C1579   1.478       .  S
C1288      C1289   1.395       .  A
C1288      C1293   1.404       .  A
C1289      H1294   1.085   1_556  S
C1289      C1290   1.392       .  A
C1290      C2256   1.470   1_556  S
C1290      C1291   1.399       .  A
C1291      H1295   1.084       .  S
C1291      C1292   1.409       .  A
C1292      C1293   1.412       .  A
C1293      H1296   1.083       .  S
O1297     Mg1299   2.113       .  S
O1297     Mg1305   2.118       .  S
O1297      C1332   1.240       .  S
C1298      O1311   1.241       .  S
C1298      O1335   1.275       .  A
C1298      H1337   1.080       .  S
Mg1299     O1328   2.121       .  S
Mg1299     O1343   2.331       .  S
Mg1299     O1339   2.246       .  S
Mg1299     O1310   2.307       .  S
O1300     Mg1342   2.100       .  S
O1300     Mg1325   2.112       .  S
O1300      C1321   1.241       .  S
O1301      C1332   1.273       .  A
O1301     Mg1325   2.297       .  S
C1302      O1304   1.269       .  A
C1302      O1316   1.272       .  A
C1302      C1416   1.476       .  S
O1303      C1331   1.273       .  A
O1303     Mg1305   2.299       .  S
O1304     Mg1336   2.243       .  S
Mg1305     O1311   2.128       .  S
Mg1305     O1319   2.259       .  S
Mg1305     O1307   2.327       .  S
C1306      O1344   1.267       .  A
C1306      O1312   1.275       .  A
C1306      C1636   1.482       .  S
O1307      C1314   1.276       .  A
H1308      C1321   1.081       .  S
C1309      O1323   1.241       .  S
C1309      O1324   1.275       .  A
C1309      H1334   1.080       .  S
O1310      C1333   1.273       .  A
O1311     Mg1325   2.114       .  S
O1312     Mg1342   2.347       .  S
C1313      O1326   1.271       .  A
C1313      O1318   1.277       .  A
C1313      C1949   1.482       .  S
C1314      O1341   1.272       .  A
C1314      C1369   1.479       .  S
Mg1315     O1322   2.123       .  S
Mg1315     O1323   2.099       .  S
Mg1315     O1316   2.312       .  S
Mg1315     O1317   2.318       .  S
Mg1315     O1344   2.238       .  S
O1317      C1321   1.275       .  A
O1318     Mg1325   2.340       .  S
O1319      C1338   1.272       .  A
O1320      C1340   1.275       .  A
O1320     Mg1336   2.323       .  S
O1322     Mg1336   2.112       .  S
O1322      C1333   1.239       .  S
O1323     Mg1342   2.127       .  S
O1324     Mg1336   2.317       .  S
Mg1325     O1341   2.249       .  S
O1326     Mg1342   2.246       .  S
H1327      C1332   1.079       .  S
O1328     Mg1336   2.113       .  S
O1328      C1331   1.240       .  S
H1329      C1331   1.081       .  S
H1330      C1333   1.081       .  S
O1335     Mg1342   2.312       .  S
C1338      O1343   1.276       .  A
C1338      C1429   1.479       .  S
O1339      C1340   1.272       .  A
C1340      C1349   1.474       .  S
C1345      C1346   1.405       .  A
C1345      C1350   1.405       .  A
C1345     Br1352   1.930       .  S
C1346      C1347   1.412       .  A
C1347      C1348   1.408       .  A
C1347     Br1354   1.925       .  S
C1348      C1349   1.406       .  A
C1348     Br1353   1.928       .  S
C1349      C1350   1.414       .  A
C1350     Br1351   1.930       .  S
C1355      C1356   1.413       .  A
C1355      C1360   1.405       .  A
C1355     Br1362   1.928       .  S
C1356      C1357   1.406       .  A
C1357      C1358   1.409       .  A
C1357     Br1364   1.924       .  S
C1358      C1359   1.412       .  A
C1358     Br1363   1.927       .  S
C1359      C1360   1.405       .  A
C1360     Br1361   1.929       .  S
C1365      C1366   1.403       .  A
C1365      C1370   1.405       .  A
C1365     Br1372   1.929       .  S
C1366      C1367   1.411       .  A
C1367      C1368   1.410       .  A
C1367     Br1374   1.926       .  S
C1368      C1369   1.408       .  A
C1368     Br1373   1.926       .  S
C1369      C1370   1.415       .  A
C1370     Br1371   1.930       .  S
C1375      C1376   1.410       .  A
C1375      C1380   1.412       .  A
C1375     Br1382   1.928       .  S
C1376      C1377   1.404       .  A
C1377      C1378   1.402       .  A
C1377     Br1384   1.932       .  S
C1378      C1379   1.417       .  A
C1378     Br1383   1.933       .  S
C1379      C1380   1.412       .  A
C1380     Br1381   1.927       .  S
C1385      C1386   1.409       .  A
C1385      C1390   1.408       .  A
C1385     Br1392   1.929       .  S
C1386      C1387   1.415       .  A
C1387      C1388   1.403       .  A
C1387     Br1394   1.932       .  S
C1388      C1389   1.404       .  A
C1388     Br1393   1.931       .  S
C1389      C1390   1.409       .  A
C1390     Br1391   1.926       .  S
C1395      C1396   1.415       .  A
C1395      C1400   1.413       .  A
C1395     Br1402   1.929       .  S
C1396      C1397   1.416       .  A
C1397      C1398   1.401       .  A
C1397     Br1404   1.935       .  S
C1398      C1399   1.406       .  A
C1398     Br1403   1.931       .  S
C1399      C1400   1.408       .  A
C1400     Br1401   1.928       .  S
C1405      C1406   1.407       .  A
C1405      C1410   1.413       .  A
C1405     Br1412   1.923       .  S
C1406      C1407   1.408       .  A
C1407      C1408   1.402       .  A
C1407     Br1414   1.937   1_554  S
C1408      C1409   1.419       .  A
C1408     Br1413   1.933       .  S
C1409      C1410   1.418       .  A
C1410     Br1411   1.931       .  S
C1415      C1416   1.415       .  A
C1415      C1420   1.401       .  A
C1415     Br1422   1.934       .  S
C1416      C1417   1.411       .  A
C1417      C1418   1.409       .  A
C1417     Br1424   1.928       .  S
C1418      C1419   1.408       .  A
C1418     Br1423   1.927       .  S
C1419      C1420   1.403       .  A
C1420     Br1421   1.929       .  S
C1425      C1426   1.413       .  A
C1425      C1430   1.411       .  A
C1425     Br1432   1.927       .  S
C1426      C1427   1.408       .  A
C1427      C1428   1.406       .  A
C1427     Br1434   1.930       .  S
C1428      C1429   1.413       .  A
C1428     Br1433   1.929       .  S
C1429      C1430   1.407       .  A
C1430     Br1431   1.927       .  S
C1435      C1436   1.407       .  A
C1435      C1440   1.406       .  A
C1435     Br1442   1.929   1_545  S
C1436      C1437   1.411       .  A
C1437      C1438   1.414       .  A
C1437     Br1444   1.925       .  S
C1438      C1439   1.411       .  A
C1438     Br1443   1.928       .  S
C1439      C1440   1.415       .  A
C1440     Br1441   1.933       .  S
C1445      C1446   1.404       .  A
C1445      C1450   1.402       .  A
C1445     Br1452   1.933       .  S
C1446      C1447   1.410       .  A
C1447      C1448   1.410       .  A
C1447     Br1454   1.925       .  S
C1448      C1449   1.409       .  A
C1448     Br1453   1.928       .  S
C1449      C1450   1.416       .  A
C1450     Br1451   1.931       .  S
C1455      C1456   1.410       .  A
C1455      C1460   1.410       .  A
C1455     Br1462   1.928       .  S
C1456      C1457   1.404       .  A
C1457      C1458   1.403       .  A
C1457     Br1464   1.932       .  S
C1458      C1459   1.416       .  A
C1458     Br1463   1.932       .  S
C1459      C1460   1.410       .  A
C1460     Br1461   1.928       .  S
C1465      C1466   1.406       .  A
C1465      C1470   1.389       .  A
C1465     Br1472   1.932       .  S
C1466      C1467   1.422       .  A
C1467      C1468   1.428       .  A
C1467     Br1474   1.927       .  S
C1468      C1469   1.420       .  A
C1468     Br1473   1.925       .  S
C1469      C1470   1.415       .  A
C1470     Br1471   1.934       .  S
C1475      C1476   1.403       .  A
C1475      C1480   1.404       .  A
C1475     Br1482   1.926       .  S
C1476      C1477   1.411       .  A
C1477      C1478   1.409       .  A
C1477     Br1484   1.926       .  S
C1478      C1479   1.408       .  A
C1478     Br1483   1.928       .  S
C1479      C1480   1.414       .  A
C1480     Br1481   1.929       .  S
C1485      C1486   1.414       .  A
C1485      C1490   1.402       .  A
C1485     Br1492   1.932       .  S
C1486      C1487   1.411       .  A
C1487      C1488   1.409       .  A
C1487     Br1494   1.929       .  S
C1488      C1489   1.409       .  A
C1488     Br1493   1.928       .  S
C1489      C1490   1.405       .  A
C1490     Br1491   1.931   1_545  S
C1495      C1496   1.415       .  A
C1495      C1500   1.411       .  A
C1495     Br1502   1.929       .  S
C1496      C1497   1.416       .  A
C1497      C1498   1.401       .  A
C1497     Br1504   1.935       .  S
C1498      C1499   1.406       .  A
C1498     Br1503   1.933       .  S
C1499      C1500   1.408       .  A
C1500     Br1501   1.929       .  S
C1505      C1506   1.422       .  A
C1505      C1510   1.401       .  A
C1505     Br1512   1.931       .  S
C1506      C1507   1.417       .  A
C1507      C1508   1.412       .  A
C1507     Br1514   1.931       .  S
C1508      C1509   1.407       .  A
C1508     Br1513   1.927       .  S
C1509      C1510   1.404       .  A
C1510     Br1511   1.938       .  S
C1515      C1516   1.415       .  A
C1515      C1520   1.409       .  A
C1515     Br1522   1.930       .  S
C1516      C1517   1.407       .  A
C1517      C1518   1.409       .  A
C1517     Br1524   1.928       .  S
C1518      C1519   1.414       .  A
C1518     Br1523   1.926       .  S
C1519      C1520   1.404       .  A
C1520     Br1521   1.923       .  S
C1525      C1526   1.399       .  A
C1525      C1530   1.402       .  A
C1525     Br1532   1.931       .  S
C1526      C1527   1.408       .  A
C1527      C1528   1.412       .  A
C1527     Br1534   1.927       .  S
C1528      C1529   1.412       .  A
C1528     Br1533   1.927       .  S
C1529      C1530   1.417       .  A
C1530     Br1531   1.922       .  S
C1535      C1536   1.402       .  A
C1535      C1540   1.395       .  A
C1535     Br1542   1.940   1_455  S
C1536      C1537   1.406       .  A
C1537      C1538   1.417       .  A
C1537     Br1544   1.926       .  S
C1538      C1539   1.428       .  A
C1538     Br1543   1.932       .  S
C1539      C1540   1.430       .  A
C1540     Br1541   1.945   1_455  S
C1545      C1546   1.411       .  A
C1545      C1550   1.412       .  A
C1545     Br1552   1.929       .  S
C1546      C1547   1.404       .  A
C1547      C1548   1.401       .  A
C1547     Br1554   1.930       .  S
C1548      C1549   1.416       .  A
C1548     Br1553   1.933       .  S
C1549      C1550   1.412       .  A
C1550     Br1551   1.928       .  S
C1555      C1556   1.416       .  A
C1555      C1560   1.401       .  A
C1555     Br1562   1.932       .  S
C1556      C1557   1.411       .  A
C1557      C1558   1.414       .  A
C1557     Br1564   1.928       .  S
C1558      C1559   1.411       .  A
C1558     Br1563   1.926       .  S
C1559      C1560   1.405       .  A
C1560     Br1561   1.933       .  S
C1565      C1566   1.409       .  A
C1565      C1570   1.411       .  A
C1565     Br1572   1.926       .  S
C1566      C1567   1.405       .  A
C1567      C1568   1.403       .  A
C1567     Br1574   1.935       .  S
C1568      C1569   1.417       .  A
C1568     Br1573   1.926       .  S
C1569      C1570   1.413       .  A
C1570     Br1571   1.930       .  S
C1575      C1576   1.406       .  A
C1575      C1580   1.408       .  A
C1575     Br1582   1.927       .  S
C1576      C1577   1.414       .  A
C1577      C1578   1.405       .  A
C1577     Br1584   1.927       .  S
C1578      C1579   1.404       .  A
C1578     Br1583   1.929       .  S
C1579      C1580   1.413       .  A
C1580     Br1581   1.928       .  S
C1585      C1586   1.405       .  A
C1585      C1590   1.403       .  A
C1585     Br1592   1.932       .  S
C1586      C1587   1.409       .  A
C1587      C1588   1.412       .  A
C1587     Br1594   1.927       .  S
C1588      C1589   1.412       .  A
C1588     Br1593   1.927       .  S
C1589      C1590   1.416       .  A
C1590     Br1591   1.934       .  S
C1595      C1596   1.414       .  A
C1595      C1600   1.404       .  A
C1595     Br1602   1.932       .  S
C1596      C1597   1.409       .  A
C1597      C1598   1.410       .  A
C1597     Br1604   1.928       .  S
C1598      C1599   1.409       .  A
C1598     Br1603   1.922       .  S
C1599      C1600   1.405       .  A
C1600     Br1601   1.929       .  S
C1605      C1606   1.409       .  A
C1605      C1610   1.413       .  A
C1605     Br1612   1.921       .  S
C1606      C1607   1.404       .  A
C1607      C1608   1.402       .  A
C1607     Br1614   1.931       .  S
C1608      C1609   1.417       .  A
C1608     Br1613   1.933       .  S
C1609      C1610   1.410       .  A
C1610     Br1611   1.927       .  S
C1615      C1616   1.405       .  A
C1615      C1620   1.403       .  A
C1615     Br1622   1.930       .  S
C1616      C1617   1.410       .  A
C1617      C1618   1.412       .  A
C1617     Br1624   1.925       .  S
C1618      C1619   1.411       .  A
C1618     Br1623   1.928       .  S
C1619      C1620   1.414       .  A
C1620     Br1621   1.933       .  S
C1625      C1626   1.408       .  A
C1625      C1630   1.409       .  A
C1625     Br1632   1.928       .  S
C1626      C1627   1.414       .  A
C1627      C1628   1.405       .  A
C1627     Br1634   1.930       .  S
C1628      C1629   1.404       .  A
C1628     Br1633   1.927       .  S
C1629      C1630   1.412       .  A
C1630     Br1631   1.928       .  S
C1635      C1636   1.415       .  A
C1635      C1640   1.401       .  A
C1635     Br1642   1.932       .  S
C1636      C1637   1.411       .  A
C1637      C1638   1.413       .  A
C1637     Br1644   1.927       .  S
C1638      C1639   1.410       .  A
C1638     Br1643   1.927       .  S
C1639      C1640   1.405       .  A
C1640     Br1641   1.931       .  S
C1645      C1646   1.409       .  A
C1645      C1650   1.411       .  A
C1645     Br1652   1.927       .  S
C1646      C1647   1.403       .  A
C1647      C1648   1.401       .  A
C1647     Br1654   1.931       .  S
C1648      C1649   1.415       .  A
C1648     Br1653   1.932       .  S
C1649      C1650   1.410       .  A
C1650     Br1651   1.927       .  S
C1655      C1656   1.406       .  A
C1655      C1660   1.409       .  A
C1655     Br1662   1.926       .  S
C1656      C1657   1.401       .  A
C1657      C1658   1.402       .  A
C1657     Br1664   1.928       .  S
C1658      C1659   1.416       .  A
C1658     Br1663   1.928       .  S
C1659      C1660   1.414       .  A
C1660     Br1661   1.930       .  S
C1665      C1666   1.410       .  A
C1665      C1670   1.415       .  A
C1665     Br1672   1.923       .  S
C1666      C1667   1.405       .  A
C1667      C1668   1.403       .  A
C1667     Br1674   1.933       .  S
C1668      C1669   1.418       .  A
C1668     Br1673   1.933       .  S
C1669      C1670   1.412       .  A
C1670     Br1671   1.927       .  S
C1675      C1676   1.414       .  A
C1675      C1680   1.402       .  A
C1675     Br1682   1.931       .  S
C1676      C1677   1.408       .  A
C1677      C1678   1.408       .  A
C1677     Br1684   1.927       .  S
C1678      C1679   1.408       .  A
C1678     Br1683   1.927       .  S
C1679      C1680   1.403       .  A
C1680     Br1681   1.930       .  S
C1685      C1686   1.407       .  A
C1685      C1690   1.403       .  A
C1685     Br1692   1.931       .  S
C1686      C1687   1.410       .  A
C1687      C1688   1.408       .  A
C1687     Br1694   1.927       .  S
C1688      C1689   1.408       .  A
C1688     Br1693   1.928       .  S
C1689      C1690   1.411       .  A
C1690     Br1691   1.932       .  S
C1695      C1696   1.402       .  A
C1695      C1700   1.404       .  A
C1695     Br1702   1.928       .  S
C1696      C1697   1.410       .  A
C1697      C1698   1.410       .  A
C1697     Br1704   1.926       .  S
C1698      C1699   1.409       .  A
C1698     Br1703   1.927       .  S
C1699      C1700   1.416       .  A
C1700     Br1701   1.929       .  S
C1705      C1706   1.415       .  A
C1705      C1710   1.400       .  A
C1705     Br1712   1.933       .  S
C1706      C1707   1.408       .  A
C1707      C1708   1.410       .  A
C1707     Br1714   1.925       .  S
C1708      C1709   1.409       .  A
C1708     Br1713   1.927       .  S
C1709      C1710   1.403       .  A
C1710     Br1711   1.930       .  S
C1715      C1716   1.409       .  A
C1715      C1720   1.410       .  A
C1715     Br1722   1.927       .  S
C1716      C1717   1.404       .  A
C1717      C1718   1.403       .  A
C1717     Br1724   1.930       .  S
C1718      C1719   1.417       .  A
C1718     Br1723   1.933       .  S
C1719      C1720   1.410       .  A
C1720     Br1721   1.924       .  S
C1725      C1726   1.410       .  A
C1725      C1730   1.412       .  A
C1725     Br1732   1.926       .  S
C1726      C1727   1.409       .  A
C1727      C1728   1.400       .  A
C1727     Br1734   1.935       .  S
C1728      C1729   1.416       .  A
C1728     Br1733   1.937       .  S
C1729      C1730   1.414       .  A
C1730     Br1731   1.929       .  S
C1735      C1736   1.407       .  A
C1735      C1740   1.413       .  A
C1735     Br1742   1.925       .  S
C1736      C1737   1.406       .  A
C1737      C1738   1.403       .  A
C1737     Br1744   1.940       .  S
C1738      C1739   1.425       .  A
C1738     Br1743   1.937       .  S
C1739      C1740   1.420       .  A
C1740     Br1741   1.931       .  S
C1745      C1746   1.404       .  A
C1745      C1750   1.401       .  A
C1745     Br1752   1.931       .  S
C1746      C1747   1.409       .  A
C1747      C1748   1.411       .  A
C1747     Br1754   1.927       .  S
C1748      C1749   1.411       .  A
C1748     Br1753   1.928       .  S
C1749      C1750   1.416       .  A
C1750     Br1751   1.932       .  S
C1755      C1756   1.412       .  A
C1755      C1760   1.413       .  A
C1755     Br1762   1.928       .  S
C1756      C1757   1.416       .  A
C1757      C1758   1.401       .  A
C1757     Br1764   1.932       .  S
C1758      C1759   1.406       .  A
C1758     Br1763   1.932       .  S
C1759      C1760   1.410       .  A
C1760     Br1761   1.927       .  S
C1765      C1766   1.417       .  A
C1765      C1770   1.399       .  A
C1765     Br1772   1.937       .  S
C1766      C1767   1.414       .  A
C1767      C1768   1.412       .  A
C1767     Br1774   1.929       .  S
C1768      C1769   1.409       .  A
C1768     Br1773   1.925       .  S
C1769      C1770   1.407       .  A
C1770     Br1771   1.936       .  S
C1775      C1776   1.414       .  A
C1775      C1780   1.407       .  A
C1775     Br1782   1.928       .  S
C1776      C1777   1.407       .  A
C1777      C1778   1.405       .  A
C1777     Br1784   1.929       .  S
C1778      C1779   1.412       .  A
C1778     Br1783   1.929       .  S
C1779      C1780   1.405       .  A
C1780     Br1781   1.928       .  S
C1785      C1786   1.404       .  A
C1785      C1790   1.401       .  A
C1785     Br1792   1.937       .  S
C1786      C1787   1.408       .  A
C1787      C1788   1.413       .  A
C1787     Br1794   1.929       .  S
C1788      C1789   1.416       .  A
C1788     Br1793   1.929       .  S
C1789      C1790   1.420       .  A
C1790     Br1791   1.929       .  S
C1795      C1796   1.410       .  A
C1795      C1800   1.410       .  A
C1795     Br1802   1.928       .  S
C1796      C1797   1.400       .  A
C1797      C1798   1.404       .  A
C1797     Br1804   1.932       .  S
C1798      C1799   1.418       .  A
C1798     Br1803   1.919       .  S
C1799      C1800   1.412       .  A
C1800     Br1801   1.929       .  S
C1805      C1806   1.406       .  A
C1805      C1810   1.409       .  A
C1805     Br1812   1.928       .  S
C1806      C1807   1.414       .  A
C1807      C1808   1.406       .  A
C1807     Br1814   1.924       .  S
C1808      C1809   1.405       .  A
C1808     Br1813   1.931       .  S
C1809      C1810   1.414       .  A
C1810     Br1811   1.927       .  S
C1815      C1816   1.427       .  A
C1815      C1820   1.405       .  A
C1815     Br1822   1.938   1_565  S
C1816      C1817   1.426       .  A
C1817      C1818   1.414       .  A
C1817     Br1824   1.927       .  S
C1818      C1819   1.405       .  A
C1818     Br1823   1.931       .  S
C1819      C1820   1.407       .  A
C1820     Br1821   1.940       .  S
C1825      C1826   1.405       .  A
C1825      C1830   1.413       .  A
C1825     Br1832   1.919       .  S
C1826      C1827   1.407       .  A
C1827      C1828   1.405       .  A
C1827     Br1834   1.941   1_655  S
C1828      C1829   1.429       .  A
C1828     Br1833   1.939   1_655  S
C1829      C1830   1.425       .  A
C1830     Br1831   1.936       .  S
C1835      C1836   1.416       .  A
C1835      C1840   1.401       .  A
C1835     Br1842   1.924       .  S
C1836      C1837   1.414       .  A
C1837      C1838   1.414       .  A
C1837     Br1844   1.929       .  S
C1838      C1839   1.409       .  A
C1838     Br1843   1.925       .  S
C1839      C1840   1.404       .  A
C1840     Br1841   1.934       .  S
C1845      C1846   1.418       .  A
C1845      C1850   1.401       .  A
C1845     Br1852   1.930       .  S
C1846      C1847   1.416       .  A
C1847      C1848   1.415       .  A
C1847     Br1854   1.929       .  S
C1848      C1849   1.410       .  A
C1848     Br1853   1.923       .  S
C1849      C1850   1.408       .  A
C1850     Br1851   1.938       .  S
C1855      C1856   1.416       .  A
C1855      C1860   1.402       .  A
C1855     Br1862   1.933       .  S
C1856      C1857   1.412       .  A
C1857      C1858   1.412       .  A
C1857     Br1864   1.926       .  S
C1858      C1859   1.409       .  A
C1858     Br1863   1.928       .  S
C1859      C1860   1.405       .  A
C1860     Br1861   1.931       .  S
C1865      C1866   1.416       .  A
C1865      C1870   1.400       .  A
C1865     Br1872   1.936       .  S
C1866      C1867   1.414       .  A
C1867      C1868   1.412       .  A
C1867     Br1874   1.929       .  S
C1868      C1869   1.408       .  A
C1868     Br1873   1.926       .  S
C1869      C1870   1.406       .  A
C1870     Br1871   1.932       .  S
C1875      C1876   1.406       .  A
C1875      C1880   1.408       .  A
C1875     Br1882   1.929       .  S
C1876      C1877   1.413       .  A
C1877      C1878   1.404       .  A
C1877     Br1884   1.929       .  S
C1878      C1879   1.406       .  A
C1878     Br1883   1.931       .  S
C1879      C1880   1.413       .  A
C1880     Br1881   1.927       .  S
C1885      C1886   1.412       .  A
C1885      C1890   1.411       .  A
C1885     Br1892   1.928       .  S
C1886      C1887   1.415       .  A
C1887      C1888   1.401       .  A
C1887     Br1894   1.935       .  S
C1888      C1889   1.405       .  A
C1888     Br1893   1.932       .  S
C1889      C1890   1.409       .  A
C1890     Br1891   1.927       .  S
C1895      C1896   1.410       .  A
C1895      C1900   1.408       .  A
C1895     Br1902   1.927       .  S
C1896      C1897   1.415       .  A
C1897      C1898   1.404       .  A
C1897     Br1904   1.928       .  S
C1898      C1899   1.398       .  A
C1898     Br1903   1.923       .  S
C1899      C1900   1.407       .  A
C1900     Br1901   1.926       .  S
C1905      C1906   1.404       .  A
C1905      C1910   1.402       .  A
C1905     Br1912   1.929       .  S
C1906      C1907   1.411       .  A
C1907      C1908   1.411       .  A
C1907     Br1914   1.927       .  S
C1908      C1909   1.409       .  A
C1908     Br1913   1.927       .  S
C1909      C1910   1.414       .  A
C1910     Br1911   1.932       .  S
C1915      C1916   1.416       .  A
C1915      C1920   1.405       .  A
C1915     Br1922   1.929       .  S
C1916      C1917   1.409       .  A
C1917      C1918   1.406       .  A
C1917     Br1924   1.929       .  S
C1918      C1919   1.411       .  A
C1918     Br1923   1.929       .  S
C1919      C1920   1.403       .  A
C1920     Br1921   1.929       .  S
C1925      C1926   1.409       .  A
C1925      C1930   1.411       .  A
C1925     Br1932   1.929       .  S
C1926      C1927   1.405       .  A
C1927      C1928   1.400       .  A
C1927     Br1934   1.933       .  S
C1928      C1929   1.416       .  A
C1928     Br1933   1.932       .  S
C1929      C1930   1.413       .  A
C1930     Br1931   1.929       .  S
C1935      C1936   1.416       .  A
C1935      C1940   1.401       .  A
C1935     Br1942   1.933       .  S
C1936      C1937   1.412       .  A
C1937      C1938   1.412       .  A
C1937     Br1944   1.928       .  S
C1938      C1939   1.410       .  A
C1938     Br1943   1.927       .  S
C1939      C1940   1.405       .  A
C1940     Br1941   1.931       .  S
C1945      C1946   1.403       .  A
C1945      C1950   1.405       .  A
C1945     Br1952   1.927       .  S
C1946      C1947   1.408       .  A
C1947      C1948   1.411       .  A
C1947     Br1954   1.916       .  S
C1948      C1949   1.410       .  A
C1948     Br1953   1.928       .  S
C1949      C1950   1.416       .  A
C1950     Br1951   1.932       .  S
C1955      C1956   1.410       .  A
C1955      C1960   1.408       .  A
C1955     Br1962   1.926       .  S
C1956      C1957   1.402       .  A
C1957      C1958   1.404       .  A
C1957     Br1964   1.928       .  S
C1958      C1959   1.415       .  A
C1958     Br1963   1.930       .  S
C1959      C1960   1.407       .  A
C1960     Br1961   1.927       .  S
C1965      C1966   1.416       .  A
C1965      C1970   1.401       .  A
C1965     Br1972   1.931       .  S
C1966      C1967   1.410       .  A
C1967      C1968   1.411       .  A
C1967     Br1974   1.927       .  S
C1968      C1969   1.410       .  A
C1968     Br1973   1.927       .  S
C1969      C1970   1.403       .  A
C1970     Br1971   1.932       .  S
C1975      C1976   1.417       .  A
C1975      C1980   1.404       .  A
C1975     Br1982   1.930       .  S
C1976      C1977   1.410       .  A
C1977      C1978   1.410       .  A
C1977     Br1984   1.927       .  S
C1978      C1979   1.408       .  A
C1978     Br1983   1.924       .  S
C1979      C1980   1.399       .  A
C1980     Br1981   1.925       .  S
C1985      C1986   1.417       .  A
C1985      C1990   1.404       .  A
C1985     Br1992   1.930       .  S
C1986      C1987   1.411       .  A
C1987      C1988   1.410       .  A
C1987     Br1994   1.927       .  S
C1988      C1989   1.408       .  A
C1988     Br1993   1.927       .  S
C1989      C1990   1.399       .  A
C1990     Br1991   1.924       .  S
C1995      C1996   1.410       .  A
C1995      C2000   1.411       .  A
C1995     Br2002   1.927       .  S
C1996      C1997   1.415       .  A
C1997      C1998   1.404       .  A
C1997     Br2004   1.930       .  S
C1998      C1999   1.401       .  A
C1998     Br2003   1.926       .  S
C1999      C2000   1.409       .  A
C2000     Br2001   1.926       .  S
C2005      C2006   1.406       .  A
C2005      C2010   1.410       .  A
C2005     Br2012   1.927       .  S
C2006      C2007   1.415       .  A
C2007      C2008   1.407       .  A
C2007     Br2014   1.927       .  S
C2008      C2009   1.404       .  A
C2008     Br2013   1.928       .  S
C2009      C2010   1.414       .  A
C2010     Br2011   1.927       .  S
C2015      C2016   1.404       .  A
C2015      C2020   1.409       .  A
C2015     Br2022   1.924       .  S
C2016      C2017   1.414       .  A
C2017      C2018   1.411       .  A
C2017     Br2024   1.928       .  S
C2018      C2019   1.410       .  A
C2018     Br2023   1.931       .  S
C2019      C2020   1.416       .  A
C2020     Br2021   1.931       .  S
C2025      C2026   1.407       .  A
C2025      C2030   1.403       .  A
C2025     Br2032   1.940       .  S
C2026      C2027   1.408       .  A
C2027      C2028   1.414       .  A
C2027     Br2034   1.920       .  S
C2028      C2029   1.418       .  A
C2028     Br2033   1.932       .  S
C2029      C2030   1.425       .  A
C2030     Br2031   1.935   1_455  S
C2035      C2036   1.412       .  A
C2035      C2040   1.407       .  A
C2035     Br2042   1.927       .  S
C2036      C2037   1.406       .  A
C2037      C2038   1.409       .  A
C2037     Br2044   1.927       .  S
C2038      C2039   1.413       .  A
C2038     Br2043   1.928       .  S
C2039      C2040   1.407       .  A
C2040     Br2041   1.928       .  S
C2045      C2046   1.415       .  A
C2045      C2050   1.409       .  A
C2045     Br2052   1.928       .  S
C2046      C2047   1.409       .  A
C2047      C2048   1.407       .  A
C2047     Br2054   1.932       .  S
C2048      C2049   1.412       .  A
C2048     Br2053   1.927       .  S
C2049      C2050   1.405       .  A
C2050     Br2051   1.928       .  S
C2055      C2056   1.409       .  A
C2055      C2060   1.414       .  A
C2055     Br2062   1.926       .  S
C2056      C2057   1.401       .  A
C2057      C2058   1.403       .  A
C2057     Br2064   1.931       .  S
C2058      C2059   1.417       .  A
C2058     Br2063   1.922       .  S
C2059      C2060   1.413       .  A
C2060     Br2061   1.927       .  S
C2065      C2066   1.413       .  A
C2065      C2070   1.404       .  A
C2065     Br2072   1.924       .  S
C2066      C2067   1.408       .  A
C2067      C2068   1.410       .  A
C2067     Br2074   1.926       .  S
C2068      C2069   1.409       .  A
C2068     Br2073   1.924       .  S
C2069      C2070   1.405       .  A
C2070     Br2071   1.931       .  S
C2075      C2076   1.409       .  A
C2075      C2080   1.409       .  A
C2075     Br2082   1.927       .  S
C2076      C2077   1.416       .  A
C2077      C2078   1.407       .  A
C2077     Br2084   1.932       .  S
C2078      C2079   1.404       .  A
C2078     Br2083   1.927       .  S
C2079      C2080   1.412       .  A
C2080     Br2081   1.927       .  S
C2085      C2086   1.413       .  A
C2085      C2090   1.409       .  A
C2085     Br2092   1.928       .  S
C2086      C2087   1.407       .  A
C2087      C2088   1.405       .  A
C2087     Br2094   1.931       .  S
C2088      C2089   1.413       .  A
C2088     Br2093   1.925       .  S
C2089      C2090   1.406       .  A
C2090     Br2091   1.927       .  S
C2095      C2096   1.414       .  A
C2095      C2100   1.409       .  A
C2095     Br2102   1.929       .  S
C2096      C2097   1.407       .  A
C2097      C2098   1.406       .  A
C2097     Br2104   1.932       .  S
C2098      C2099   1.413       .  A
C2098     Br2103   1.926       .  S
C2099      C2100   1.405       .  A
C2100     Br2101   1.926       .  S
C2105      C2106   1.402       .  A
C2105      C2110   1.405       .  A
C2105     Br2112   1.925       .  S
C2106      C2107   1.410       .  A
C2107      C2108   1.408       .  A
C2107     Br2114   1.925       .  S
C2108      C2109   1.408       .  A
C2108     Br2113   1.928       .  S
C2109      C2110   1.414       .  A
C2110     Br2111   1.929       .  S
C2115      C2116   1.408       .  A
C2115      C2120   1.413       .  A
C2115     Br2122   1.924       .  S
C2116      C2117   1.405       .  A
C2117      C2118   1.401       .  A
C2117     Br2124   1.925       .  S
C2118      C2119   1.414       .  A
C2118     Br2123   1.936       .  S
C2119      C2120   1.413       .  A
C2120     Br2121   1.929       .  S
C2125      C2126   1.408       .  A
C2125      C2130   1.409       .  A
C2125     Br2132   1.928       .  S
C2126      C2127   1.414       .  A
C2127      C2128   1.404       .  A
C2127     Br2134   1.924       .  S
C2128      C2129   1.403       .  A
C2128     Br2133   1.930       .  S
C2129      C2130   1.411       .  A
C2130     Br2131   1.928       .  S
C2135      C2136   1.416       .  A
C2135      C2140   1.414       .  A
C2135     Br2142   1.930       .  S
C2136      C2137   1.420       .  A
C2137      C2138   1.402       .  A
C2137     Br2144   1.929       .  S
C2138      C2139   1.404       .  A
C2138     Br2143   1.938       .  S
C2139      C2140   1.408       .  A
C2140     Br2141   1.927       .  S
C2145      C2146   1.421       .  A
C2145      C2150   1.401       .  A
C2145     Br2152   1.933       .  S
C2146      C2147   1.417       .  A
C2147      C2148   1.412       .  A
C2147     Br2154   1.932       .  S
C2148      C2149   1.408       .  A
C2148     Br2153   1.925       .  S
C2149      C2150   1.406       .  A
C2150     Br2151   1.938       .  S
C2155      C2156   1.416       .  A
C2155      C2160   1.415       .  A
C2155     Br2162   1.929       .  S
C2156      C2157   1.419       .  A
C2157      C2158   1.402       .  A
C2157     Br2164   1.925       .  S
C2158      C2159   1.403       .  A
C2158     Br2163   1.937       .  S
C2159      C2160   1.409       .  A
C2160     Br2161   1.928       .  S
C2165      C2166   1.413       .  A
C2165      C2170   1.407       .  A
C2165     Br2172   1.928       .  S
C2166      C2167   1.404       .  A
C2167      C2168   1.407       .  A
C2167     Br2174   1.927       .  S
C2168      C2169   1.414       .  A
C2168     Br2173   1.930       .  S
C2169      C2170   1.407       .  A
C2170     Br2171   1.929       .  S
C2175      C2176   1.414       .  A
C2175      C2180   1.412       .  A
C2175     Br2182   1.930       .  S
C2176      C2177   1.418       .  A
C2177      C2178   1.401       .  A
C2177     Br2184   1.926       .  S
C2178      C2179   1.403       .  A
C2178     Br2183   1.936       .  S
C2179      C2180   1.409       .  A
C2180     Br2181   1.927       .  S
C2185      C2186   1.415       .  A
C2185      C2190   1.405       .  A
C2185     Br2192   1.929       .  S
C2186      C2187   1.407       .  A
C2187      C2188   1.410       .  A
C2187     Br2194   1.927       .  S
C2188      C2189   1.413       .  A
C2188     Br2193   1.926       .  S
C2189      C2190   1.405       .  A
C2190     Br2191   1.931       .  S
C2195      C2196   1.415       .  A
C2195      C2200   1.415       .  A
C2195     Br2202   1.929       .  S
C2196      C2197   1.417       .  A
C2197      C2198   1.399       .  A
C2197     Br2204   1.940       .  S
C2198      C2199   1.408       .  A
C2198     Br2203   1.932       .  S
C2199      C2200   1.410       .  A
C2200     Br2201   1.924       .  S
C2205      C2206   1.411       .  A
C2205      C2210   1.407       .  A
C2205     Br2212   1.928       .  S
C2206      C2207   1.404       .  A
C2207      C2208   1.404       .  A
C2207     Br2214   1.927       .  S
C2208      C2209   1.412       .  A
C2208     Br2213   1.929       .  S
C2209      C2210   1.406       .  A
C2210     Br2211   1.928       .  S
C2215      C2216   1.413       .  A
C2215      C2220   1.409       .  A
C2215     Br2222   1.926       .  S
C2216      C2217   1.406       .  A
C2217      C2218   1.404       .  A
C2217     Br2224   1.932       .  S
C2218      C2219   1.414       .  A
C2218     Br2223   1.930       .  S
C2219      C2220   1.406       .  A
C2220     Br2221   1.927       .  S
C2225      C2226   1.408       .  A
C2225      C2230   1.409       .  A
C2225     Br2232   1.927       .  S
C2226      C2227   1.415       .  A
C2227      C2228   1.404       .  A
C2227     Br2234   1.930       .  S
C2228      C2229   1.404       .  A
C2228     Br2233   1.929       .  S
C2229      C2230   1.410       .  A
C2230     Br2231   1.927       .  S
C2235      C2236   1.414       .  A
C2235      C2240   1.407       .  A
C2235     Br2242   1.928       .  S
C2236      C2237   1.405       .  A
C2237      C2238   1.409       .  A
C2237     Br2244   1.927       .  S
C2238      C2239   1.414       .  A
C2238     Br2243   1.930       .  S
C2239      C2240   1.406       .  A
C2240     Br2241   1.930       .  S
C2245      C2246   1.413       .  A
C2245      C2250   1.404       .  A
C2245     Br2252   1.924       .  S
C2246      C2247   1.410       .  A
C2247      C2248   1.410       .  A
C2247     Br2254   1.927       .  S
C2248      C2249   1.409       .  A
C2248     Br2253   1.925       .  S
C2249      C2250   1.405       .  A
C2250     Br2251   1.931       .  S
C2255      C2256   1.408       .  A
C2255      C2260   1.408       .  A
C2255     Br2262   1.926       .  S
C2256      C2257   1.404       .  A
C2257      C2258   1.401       .  A
C2257     Br2264   1.933       .  S
C2258      C2259   1.412       .  A
C2258     Br2263   1.925       .  S
C2259      C2260   1.409       .  A
C2260     Br2261   1.926       .  S
C2265      C2266   1.408       .  A
C2265      C2270   1.389       .  A
C2265     Br2272   1.927       .  S
C2266      C2267   1.426       .  A
C2267      C2268   1.428       .  A
C2267     Br2274   1.930       .  S
C2268      C2269   1.421       .  A
C2268     Br2273   1.923       .  S
C2269      C2270   1.413       .  A
C2270     Br2271   1.934       .  S
C2275      C2276   1.413       .  A
C2275      C2280   1.411       .  A
C2275     Br2282   1.921       .  S
C2276      C2277   1.417       .  A
C2277      C2278   1.400       .  A
C2277     Br2284   1.924       .  S
C2278      C2279   1.403       .  A
C2278     Br2283   1.936       .  S
C2279      C2280   1.407       .  A
C2280     Br2281   1.928       .  S
C2285      C2286   1.416       .  A
C2285      C2290   1.394       .  A
C2285     Br2292   1.930       .  S
C2286      C2287   1.427       .  A
C2287      C2288   1.424       .  A
C2287     Br2294   1.932       .  S
C2288      C2289   1.415       .  A
C2288     Br2293   1.921       .  S
C2289      C2290   1.411       .  A
C2290     Br2291   1.938       .  S
C2295      C2296   1.414       .  A
C2295      C2300   1.407       .  A
C2295     Br2302   1.929       .  S
C2296      C2297   1.407       .  A
C2297      C2298   1.405       .  A
C2297     Br2304   1.929       .  S
C2298      C2299   1.411       .  A
C2298     Br2303   1.927       .  S
C2299      C2300   1.405       .  A
C2300     Br2301   1.928       .  S
